REMARK  Name = 
REMARK  15 active torsions:
REMARK  status: ('A' for Active; 'I' for Inactive)
REMARK    1  A    between atoms: C_3  and  C_4
REMARK    2  A    between atoms: C_4  and  C_5
REMARK    3  A    between atoms: C_5  and  C_6
REMARK    4  A    between atoms: C_5  and  C_11
REMARK    5  A    between atoms: C_6  and  C_7
REMARK    6  A    between atoms: C_29  and  C_30
REMARK    7  A    between atoms: C_30  and  C_31
REMARK    8  A    between atoms: C_31  and  C_32
REMARK    9  A    between atoms: C_31  and  C_37
REMARK   10  A    between atoms: C_32  and  C_33
REMARK   11  A    between atoms: C_42  and  C_43
REMARK   12  A    between atoms: C_43  and  C_44
REMARK   13  A    between atoms: C_44  and  C_45
REMARK   14  A    between atoms: C_44  and  C_50
REMARK   15  A    between atoms: C_45  and  C_46
REMARK                            x       y       z     vdW  Elec       q    Type
REMARK                         _______ _______ _______ _____ _____    ______ ____
ROOT
ATOM      1 FE   UNL     1      -5.706   0.058   0.000  0.00  0.00    +0.000 Fe
ENDROOT
TORSDOF 0
REMARK  Name = 
REMARK  15 active torsions:
REMARK  status: ('A' for Active; 'I' for Inactive)
REMARK    1  A    between atoms: C_3  and  C_4
REMARK    2  A    between atoms: C_4  and  C_5
REMARK    3  A    between atoms: C_5  and  C_6
REMARK    4  A    between atoms: C_5  and  C_11
REMARK    5  A    between atoms: C_6  and  C_7
REMARK    6  A    between atoms: C_29  and  C_30
REMARK    7  A    between atoms: C_30  and  C_31
REMARK    8  A    between atoms: C_31  and  C_32
REMARK    9  A    between atoms: C_31  and  C_37
REMARK   10  A    between atoms: C_32  and  C_33
REMARK   11  A    between atoms: C_42  and  C_43
REMARK   12  A    between atoms: C_43  and  C_44
REMARK   13  A    between atoms: C_44  and  C_45
REMARK   14  A    between atoms: C_44  and  C_50
REMARK   15  A    between atoms: C_45  and  C_46
REMARK                            x       y       z     vdW  Elec       q    Type
REMARK                         _______ _______ _______ _____ _____    ______ ____
ROOT
ATOM      1  C   UNL     1       0.396   0.207   0.000  0.00  0.00    +0.000 C 
ATOM      2  O   UNL     1       0.396   1.031   0.000  0.00  0.00    +0.000 OA
ENDROOT
BRANCH   1   3
ATOM      3  C   UNL     1       0.396  -0.612   0.000  0.00  0.00    +0.000 C 
ATOM      4  O   UNL     1      -0.327  -1.026   0.000  0.00  0.00    +0.000 OA
ATOM      5  O   UNL     1       1.109  -1.031   0.000  0.00  0.00    +0.000 OA
ENDBRANCH   1   3
BRANCH   1   6
ATOM      6  C   UNL     1      -0.318  -0.207   0.000  0.00  0.00    +0.000 C 
BRANCH   6   8
ATOM      7  O   UNL     1      -1.749  -0.207   0.000  0.00  0.00    +0.000 OA
ATOM      8  C   UNL     1      -1.031   0.207   0.000  0.00  0.00    +0.000 C 
ATOM      9  O   UNL     1      -1.031   1.031   0.000  0.00  0.00    +0.000 OA
ENDBRANCH   6   8
ENDBRANCH   1   6
BRANCH   1  10
ATOM     10  C   UNL     1       1.114  -0.207   0.000  0.00  0.00    +0.000 C 
BRANCH  10  11
ATOM     11  C   UNL     1       1.832   0.207   0.000  0.00  0.00    +0.000 C 
ATOM     12  O   UNL     1       2.545  -0.207   0.000  0.00  0.00    +0.000 OA
ATOM     13  O   UNL     1       1.832   1.031   0.000  0.00  0.00    +0.000 OA
ENDBRANCH  10  11
ENDBRANCH   1  10
TORSDOF 5
REMARK  Name = 
REMARK  15 active torsions:
REMARK  status: ('A' for Active; 'I' for Inactive)
REMARK    1  A    between atoms: C_3  and  C_4
REMARK    2  A    between atoms: C_4  and  C_5
REMARK    3  A    between atoms: C_5  and  C_6
REMARK    4  A    between atoms: C_5  and  C_11
REMARK    5  A    between atoms: C_6  and  C_7
REMARK    6  A    between atoms: C_29  and  C_30
REMARK    7  A    between atoms: C_30  and  C_31
REMARK    8  A    between atoms: C_31  and  C_32
REMARK    9  A    between atoms: C_31  and  C_37
REMARK   10  A    between atoms: C_32  and  C_33
REMARK   11  A    between atoms: C_42  and  C_43
REMARK   12  A    between atoms: C_43  and  C_44
REMARK   13  A    between atoms: C_44  and  C_45
REMARK   14  A    between atoms: C_44  and  C_50
REMARK   15  A    between atoms: C_45  and  C_46
REMARK                            x       y       z     vdW  Elec       q    Type
REMARK                         _______ _______ _______ _____ _____    ______ ____
ROOT
ATOM      1  O   HOH     1       5.706   0.414   0.000  0.00  0.00    +0.000 OA
ENDROOT
TORSDOF 0
REMARK  Name = 
REMARK  15 active torsions:
REMARK  status: ('A' for Active; 'I' for Inactive)
REMARK    1  A    between atoms: C_3  and  C_4
REMARK    2  A    between atoms: C_4  and  C_5
REMARK    3  A    between atoms: C_5  and  C_6
REMARK    4  A    between atoms: C_5  and  C_11
REMARK    5  A    between atoms: C_6  and  C_7
REMARK    6  A    between atoms: C_29  and  C_30
REMARK    7  A    between atoms: C_30  and  C_31
REMARK    8  A    between atoms: C_31  and  C_32
REMARK    9  A    between atoms: C_31  and  C_37
REMARK   10  A    between atoms: C_32  and  C_33
REMARK   11  A    between atoms: C_42  and  C_43
REMARK   12  A    between atoms: C_43  and  C_44
REMARK   13  A    between atoms: C_44  and  C_45
REMARK   14  A    between atoms: C_44  and  C_50
REMARK   15  A    between atoms: C_45  and  C_46
REMARK                            x       y       z     vdW  Elec       q    Type
REMARK                         _______ _______ _______ _____ _____    ______ ____
ROOT
ATOM      1  O   HOH     1       5.706   0.414   0.000  0.00  0.00    +0.000 OA
ENDROOT
TORSDOF 0
REMARK  Name = 
REMARK  15 active torsions:
REMARK  status: ('A' for Active; 'I' for Inactive)
REMARK    1  A    between atoms: C_3  and  C_4
REMARK    2  A    between atoms: C_4  and  C_5
REMARK    3  A    between atoms: C_5  and  C_6
REMARK    4  A    between atoms: C_5  and  C_11
REMARK    5  A    between atoms: C_6  and  C_7
REMARK    6  A    between atoms: C_29  and  C_30
REMARK    7  A    between atoms: C_30  and  C_31
REMARK    8  A    between atoms: C_31  and  C_32
REMARK    9  A    between atoms: C_31  and  C_37
REMARK   10  A    between atoms: C_32  and  C_33
REMARK   11  A    between atoms: C_42  and  C_43
REMARK   12  A    between atoms: C_43  and  C_44
REMARK   13  A    between atoms: C_44  and  C_45
REMARK   14  A    between atoms: C_44  and  C_50
REMARK   15  A    between atoms: C_45  and  C_46
REMARK                            x       y       z     vdW  Elec       q    Type
REMARK                         _______ _______ _______ _____ _____    ______ ____
ROOT
ATOM      1  O   HOH     1       5.706   0.414   0.000  0.00  0.00    +0.000 OA
ENDROOT
TORSDOF 0
REMARK  Name = 
REMARK  15 active torsions:
REMARK  status: ('A' for Active; 'I' for Inactive)
REMARK    1  A    between atoms: C_3  and  C_4
REMARK    2  A    between atoms: C_4  and  C_5
REMARK    3  A    between atoms: C_5  and  C_6
REMARK    4  A    between atoms: C_5  and  C_11
REMARK    5  A    between atoms: C_6  and  C_7
REMARK    6  A    between atoms: C_29  and  C_30
REMARK    7  A    between atoms: C_30  and  C_31
REMARK    8  A    between atoms: C_31  and  C_32
REMARK    9  A    between atoms: C_31  and  C_37
REMARK   10  A    between atoms: C_32  and  C_33
REMARK   11  A    between atoms: C_42  and  C_43
REMARK   12  A    between atoms: C_43  and  C_44
REMARK   13  A    between atoms: C_44  and  C_45
REMARK   14  A    between atoms: C_44  and  C_50
REMARK   15  A    between atoms: C_45  and  C_46
REMARK                            x       y       z     vdW  Elec       q    Type
REMARK                         _______ _______ _______ _____ _____    ______ ____
ROOT
ATOM      1  O   HOH     1       5.706   0.414   0.000  0.00  0.00    +0.000 OA
ENDROOT
TORSDOF 0
REMARK  Name = 
REMARK  15 active torsions:
REMARK  status: ('A' for Active; 'I' for Inactive)
REMARK    1  A    between atoms: C_3  and  C_4
REMARK    2  A    between atoms: C_4  and  C_5
REMARK    3  A    between atoms: C_5  and  C_6
REMARK    4  A    between atoms: C_5  and  C_11
REMARK    5  A    between atoms: C_6  and  C_7
REMARK    6  A    between atoms: C_29  and  C_30
REMARK    7  A    between atoms: C_30  and  C_31
REMARK    8  A    between atoms: C_31  and  C_32
REMARK    9  A    between atoms: C_31  and  C_37
REMARK   10  A    between atoms: C_32  and  C_33
REMARK   11  A    between atoms: C_42  and  C_43
REMARK   12  A    between atoms: C_43  and  C_44
REMARK   13  A    between atoms: C_44  and  C_45
REMARK   14  A    between atoms: C_44  and  C_50
REMARK   15  A    between atoms: C_45  and  C_46
REMARK                            x       y       z     vdW  Elec       q    Type
REMARK                         _______ _______ _______ _____ _____    ______ ____
ROOT
ATOM      1  O   HOH     1       5.706   0.414   0.000  0.00  0.00    +0.000 OA
ENDROOT
TORSDOF 0
REMARK  Name = 
REMARK  15 active torsions:
REMARK  status: ('A' for Active; 'I' for Inactive)
REMARK    1  A    between atoms: C_3  and  C_4
REMARK    2  A    between atoms: C_4  and  C_5
REMARK    3  A    between atoms: C_5  and  C_6
REMARK    4  A    between atoms: C_5  and  C_11
REMARK    5  A    between atoms: C_6  and  C_7
REMARK    6  A    between atoms: C_29  and  C_30
REMARK    7  A    between atoms: C_30  and  C_31
REMARK    8  A    between atoms: C_31  and  C_32
REMARK    9  A    between atoms: C_31  and  C_37
REMARK   10  A    between atoms: C_32  and  C_33
REMARK   11  A    between atoms: C_42  and  C_43
REMARK   12  A    between atoms: C_43  and  C_44
REMARK   13  A    between atoms: C_44  and  C_45
REMARK   14  A    between atoms: C_44  and  C_50
REMARK   15  A    between atoms: C_45  and  C_46
REMARK                            x       y       z     vdW  Elec       q    Type
REMARK                         _______ _______ _______ _____ _____    ______ ____
ROOT
ATOM      1  O   HOH     1       5.706   0.414   0.000  0.00  0.00    +0.000 OA
ENDROOT
TORSDOF 0
REMARK  Name = 
REMARK  15 active torsions:
REMARK  status: ('A' for Active; 'I' for Inactive)
REMARK    1  A    between atoms: C_3  and  C_4
REMARK    2  A    between atoms: C_4  and  C_5
REMARK    3  A    between atoms: C_5  and  C_6
REMARK    4  A    between atoms: C_5  and  C_11
REMARK    5  A    between atoms: C_6  and  C_7
REMARK    6  A    between atoms: C_29  and  C_30
REMARK    7  A    between atoms: C_30  and  C_31
REMARK    8  A    between atoms: C_31  and  C_32
REMARK    9  A    between atoms: C_31  and  C_37
REMARK   10  A    between atoms: C_32  and  C_33
REMARK   11  A    between atoms: C_42  and  C_43
REMARK   12  A    between atoms: C_43  and  C_44
REMARK   13  A    between atoms: C_44  and  C_45
REMARK   14  A    between atoms: C_44  and  C_50
REMARK   15  A    between atoms: C_45  and  C_46
REMARK                            x       y       z     vdW  Elec       q    Type
REMARK                         _______ _______ _______ _____ _____    ______ ____
ROOT
ATOM      1  O   HOH     1       5.706   0.414   0.000  0.00  0.00    +0.000 OA
ENDROOT
TORSDOF 0
REMARK  Name = 
REMARK  15 active torsions:
REMARK  status: ('A' for Active; 'I' for Inactive)
REMARK    1  A    between atoms: C_3  and  C_4
REMARK    2  A    between atoms: C_4  and  C_5
REMARK    3  A    between atoms: C_5  and  C_6
REMARK    4  A    between atoms: C_5  and  C_11
REMARK    5  A    between atoms: C_6  and  C_7
REMARK    6  A    between atoms: C_29  and  C_30
REMARK    7  A    between atoms: C_30  and  C_31
REMARK    8  A    between atoms: C_31  and  C_32
REMARK    9  A    between atoms: C_31  and  C_37
REMARK   10  A    between atoms: C_32  and  C_33
REMARK   11  A    between atoms: C_42  and  C_43
REMARK   12  A    between atoms: C_43  and  C_44
REMARK   13  A    between atoms: C_44  and  C_45
REMARK   14  A    between atoms: C_44  and  C_50
REMARK   15  A    between atoms: C_45  and  C_46
REMARK                            x       y       z     vdW  Elec       q    Type
REMARK                         _______ _______ _______ _____ _____    ______ ____
ROOT
ATOM      1  O   HOH     1       5.706   0.414   0.000  0.00  0.00    +0.000 OA
ENDROOT
TORSDOF 0
REMARK  Name = 
REMARK  15 active torsions:
REMARK  status: ('A' for Active; 'I' for Inactive)
REMARK    1  A    between atoms: C_3  and  C_4
REMARK    2  A    between atoms: C_4  and  C_5
REMARK    3  A    between atoms: C_5  and  C_6
REMARK    4  A    between atoms: C_5  and  C_11
REMARK    5  A    between atoms: C_6  and  C_7
REMARK    6  A    between atoms: C_29  and  C_30
REMARK    7  A    between atoms: C_30  and  C_31
REMARK    8  A    between atoms: C_31  and  C_32
REMARK    9  A    between atoms: C_31  and  C_37
REMARK   10  A    between atoms: C_32  and  C_33
REMARK   11  A    between atoms: C_42  and  C_43
REMARK   12  A    between atoms: C_43  and  C_44
REMARK   13  A    between atoms: C_44  and  C_45
REMARK   14  A    between atoms: C_44  and  C_50
REMARK   15  A    between atoms: C_45  and  C_46
REMARK                            x       y       z     vdW  Elec       q    Type
REMARK                         _______ _______ _______ _____ _____    ______ ____
ROOT
ATOM      1  O   HOH     1       5.706   0.414   0.000  0.00  0.00    +0.000 OA
ENDROOT
TORSDOF 0
REMARK  Name = 
REMARK  15 active torsions:
REMARK  status: ('A' for Active; 'I' for Inactive)
REMARK    1  A    between atoms: C_3  and  C_4
REMARK    2  A    between atoms: C_4  and  C_5
REMARK    3  A    between atoms: C_5  and  C_6
REMARK    4  A    between atoms: C_5  and  C_11
REMARK    5  A    between atoms: C_6  and  C_7
REMARK    6  A    between atoms: C_29  and  C_30
REMARK    7  A    between atoms: C_30  and  C_31
REMARK    8  A    between atoms: C_31  and  C_32
REMARK    9  A    between atoms: C_31  and  C_37
REMARK   10  A    between atoms: C_32  and  C_33
REMARK   11  A    between atoms: C_42  and  C_43
REMARK   12  A    between atoms: C_43  and  C_44
REMARK   13  A    between atoms: C_44  and  C_45
REMARK   14  A    between atoms: C_44  and  C_50
REMARK   15  A    between atoms: C_45  and  C_46
REMARK                            x       y       z     vdW  Elec       q    Type
REMARK                         _______ _______ _______ _____ _____    ______ ____
ROOT
ATOM      1  O   HOH     1       5.706   0.414   0.000  0.00  0.00    +0.000 OA
ENDROOT
TORSDOF 0
REMARK  Name = 
REMARK  15 active torsions:
REMARK  status: ('A' for Active; 'I' for Inactive)
REMARK    1  A    between atoms: C_3  and  C_4
REMARK    2  A    between atoms: C_4  and  C_5
REMARK    3  A    between atoms: C_5  and  C_6
REMARK    4  A    between atoms: C_5  and  C_11
REMARK    5  A    between atoms: C_6  and  C_7
REMARK    6  A    between atoms: C_29  and  C_30
REMARK    7  A    between atoms: C_30  and  C_31
REMARK    8  A    between atoms: C_31  and  C_32
REMARK    9  A    between atoms: C_31  and  C_37
REMARK   10  A    between atoms: C_32  and  C_33
REMARK   11  A    between atoms: C_42  and  C_43
REMARK   12  A    between atoms: C_43  and  C_44
REMARK   13  A    between atoms: C_44  and  C_45
REMARK   14  A    between atoms: C_44  and  C_50
REMARK   15  A    between atoms: C_45  and  C_46
REMARK                            x       y       z     vdW  Elec       q    Type
REMARK                         _______ _______ _______ _____ _____    ______ ____
ROOT
ATOM      1 FE   UNL     1      -5.706   0.058   0.000  0.00  0.00    +0.000 Fe
ENDROOT
TORSDOF 0
REMARK  Name = 
REMARK  15 active torsions:
REMARK  status: ('A' for Active; 'I' for Inactive)
REMARK    1  A    between atoms: C_3  and  C_4
REMARK    2  A    between atoms: C_4  and  C_5
REMARK    3  A    between atoms: C_5  and  C_6
REMARK    4  A    between atoms: C_5  and  C_11
REMARK    5  A    between atoms: C_6  and  C_7
REMARK    6  A    between atoms: C_29  and  C_30
REMARK    7  A    between atoms: C_30  and  C_31
REMARK    8  A    between atoms: C_31  and  C_32
REMARK    9  A    between atoms: C_31  and  C_37
REMARK   10  A    between atoms: C_32  and  C_33
REMARK   11  A    between atoms: C_42  and  C_43
REMARK   12  A    between atoms: C_43  and  C_44
REMARK   13  A    between atoms: C_44  and  C_45
REMARK   14  A    between atoms: C_44  and  C_50
REMARK   15  A    between atoms: C_45  and  C_46
REMARK                            x       y       z     vdW  Elec       q    Type
REMARK                         _______ _______ _______ _____ _____    ______ ____
ROOT
ATOM      1 FE   UNL     1      -5.706   0.058   0.000  0.00  0.00    +0.000 Fe
ENDROOT
TORSDOF 0
REMARK  Name = 
REMARK  15 active torsions:
REMARK  status: ('A' for Active; 'I' for Inactive)
REMARK    1  A    between atoms: C_3  and  C_4
REMARK    2  A    between atoms: C_4  and  C_5
REMARK    3  A    between atoms: C_5  and  C_6
REMARK    4  A    between atoms: C_5  and  C_11
REMARK    5  A    between atoms: C_6  and  C_7
REMARK    6  A    between atoms: C_29  and  C_30
REMARK    7  A    between atoms: C_30  and  C_31
REMARK    8  A    between atoms: C_31  and  C_32
REMARK    9  A    between atoms: C_31  and  C_37
REMARK   10  A    between atoms: C_32  and  C_33
REMARK   11  A    between atoms: C_42  and  C_43
REMARK   12  A    between atoms: C_43  and  C_44
REMARK   13  A    between atoms: C_44  and  C_45
REMARK   14  A    between atoms: C_44  and  C_50
REMARK   15  A    between atoms: C_45  and  C_46
REMARK                            x       y       z     vdW  Elec       q    Type
REMARK                         _______ _______ _______ _____ _____    ______ ____
ROOT
ATOM      1 FE   UNL     1      -5.706   0.058   0.000  0.00  0.00    +0.000 Fe
ENDROOT
TORSDOF 0
REMARK  Name = 
REMARK  15 active torsions:
REMARK  status: ('A' for Active; 'I' for Inactive)
REMARK    1  A    between atoms: C_3  and  C_4
REMARK    2  A    between atoms: C_4  and  C_5
REMARK    3  A    between atoms: C_5  and  C_6
REMARK    4  A    between atoms: C_5  and  C_11
REMARK    5  A    between atoms: C_6  and  C_7
REMARK    6  A    between atoms: C_29  and  C_30
REMARK    7  A    between atoms: C_30  and  C_31
REMARK    8  A    between atoms: C_31  and  C_32
REMARK    9  A    between atoms: C_31  and  C_37
REMARK   10  A    between atoms: C_32  and  C_33
REMARK   11  A    between atoms: C_42  and  C_43
REMARK   12  A    between atoms: C_43  and  C_44
REMARK   13  A    between atoms: C_44  and  C_45
REMARK   14  A    between atoms: C_44  and  C_50
REMARK   15  A    between atoms: C_45  and  C_46
REMARK                            x       y       z     vdW  Elec       q    Type
REMARK                         _______ _______ _______ _____ _____    ______ ____
ROOT
ATOM      1  C   UNL     1       0.396   0.207   0.000  0.00  0.00    +0.000 C 
ATOM      2  O   UNL     1       0.396   1.031   0.000  0.00  0.00    +0.000 OA
ENDROOT
BRANCH   1   3
ATOM      3  C   UNL     1       0.396  -0.612   0.000  0.00  0.00    +0.000 C 
ATOM      4  O   UNL     1      -0.327  -1.026   0.000  0.00  0.00    +0.000 OA
ATOM      5  O   UNL     1       1.109  -1.031   0.000  0.00  0.00    +0.000 OA
ENDBRANCH   1   3
BRANCH   1   6
ATOM      6  C   UNL     1      -0.318  -0.207   0.000  0.00  0.00    +0.000 C 
BRANCH   6   8
ATOM      7  O   UNL     1      -1.749  -0.207   0.000  0.00  0.00    +0.000 OA
ATOM      8  C   UNL     1      -1.031   0.207   0.000  0.00  0.00    +0.000 C 
ATOM      9  O   UNL     1      -1.031   1.031   0.000  0.00  0.00    +0.000 OA
ENDBRANCH   6   8
ENDBRANCH   1   6
BRANCH   1  10
ATOM     10  C   UNL     1       1.114  -0.207   0.000  0.00  0.00    +0.000 C 
BRANCH  10  11
ATOM     11  C   UNL     1       1.832   0.207   0.000  0.00  0.00    +0.000 C 
ATOM     12  O   UNL     1       2.545  -0.207   0.000  0.00  0.00    +0.000 OA
ATOM     13  O   UNL     1       1.832   1.031   0.000  0.00  0.00    +0.000 OA
ENDBRANCH  10  11
ENDBRANCH   1  10
TORSDOF 5
REMARK  Name = 
REMARK  15 active torsions:
REMARK  status: ('A' for Active; 'I' for Inactive)
REMARK    1  A    between atoms: C_3  and  C_4
REMARK    2  A    between atoms: C_4  and  C_5
REMARK    3  A    between atoms: C_5  and  C_6
REMARK    4  A    between atoms: C_5  and  C_11
REMARK    5  A    between atoms: C_6  and  C_7
REMARK    6  A    between atoms: C_29  and  C_30
REMARK    7  A    between atoms: C_30  and  C_31
REMARK    8  A    between atoms: C_31  and  C_32
REMARK    9  A    between atoms: C_31  and  C_37
REMARK   10  A    between atoms: C_32  and  C_33
REMARK   11  A    between atoms: C_42  and  C_43
REMARK   12  A    between atoms: C_43  and  C_44
REMARK   13  A    between atoms: C_44  and  C_45
REMARK   14  A    between atoms: C_44  and  C_50
REMARK   15  A    between atoms: C_45  and  C_46
REMARK                            x       y       z     vdW  Elec       q    Type
REMARK                         _______ _______ _______ _____ _____    ______ ____
ROOT
ATOM      1  C   UNL     1       0.396   0.207   0.000  0.00  0.00    +0.000 C 
ATOM      2  O   UNL     1       0.396   1.031   0.000  0.00  0.00    +0.000 OA
ENDROOT
BRANCH   1   3
ATOM      3  C   UNL     1       0.396  -0.612   0.000  0.00  0.00    +0.000 C 
ATOM      4  O   UNL     1      -0.327  -1.026   0.000  0.00  0.00    +0.000 OA
ATOM      5  O   UNL     1       1.109  -1.031   0.000  0.00  0.00    +0.000 OA
ENDBRANCH   1   3
BRANCH   1   6
ATOM      6  C   UNL     1      -0.318  -0.207   0.000  0.00  0.00    +0.000 C 
BRANCH   6   8
ATOM      7  O   UNL     1      -1.749  -0.207   0.000  0.00  0.00    +0.000 OA
ATOM      8  C   UNL     1      -1.031   0.207   0.000  0.00  0.00    +0.000 C 
ATOM      9  O   UNL     1      -1.031   1.031   0.000  0.00  0.00    +0.000 OA
ENDBRANCH   6   8
ENDBRANCH   1   6
BRANCH   1  10
ATOM     10  C   UNL     1       1.114  -0.207   0.000  0.00  0.00    +0.000 C 
BRANCH  10  11
ATOM     11  C   UNL     1       1.832   0.207   0.000  0.00  0.00    +0.000 C 
ATOM     12  O   UNL     1       2.545  -0.207   0.000  0.00  0.00    +0.000 OA
ATOM     13  O   UNL     1       1.832   1.031   0.000  0.00  0.00    +0.000 OA
ENDBRANCH  10  11
ENDBRANCH   1  10
TORSDOF 5
