REMARK  Name = 
REMARK  3 active torsions:
REMARK  status: ('A' for Active; 'I' for Inactive)
REMARK    1  A    between atoms: C_1  and  C_2
REMARK    2  A    between atoms: C_2  and  C_5
REMARK    3  A    between atoms: C_5  and  N_8
REMARK                            x       y       z     vdW  Elec       q    Type
REMARK                         _______ _______ _______ _____ _____    ______ ____
ROOT
ATOM      1  C   UNL     1      -0.309  -0.412   0.000  0.00  0.00    +0.000 C 
ENDROOT
BRANCH   1   2
ATOM      2  N   UNL     1       0.351  -0.825   0.000  0.00  0.00    +0.000 NA
ATOM      3  C   UNL     1       1.052  -0.412   0.000  0.00  0.00    +0.000 C 
ATOM      4  N   UNL     1       1.795  -0.825   0.000  0.00  0.00    +0.000 NA
ATOM      5  N   UNL     1       1.052   0.412   0.000  0.00  0.00    +0.000 NA
ATOM      6  C   UNL     1       2.496  -0.412   0.000  0.00  0.00    +0.000 C 
ATOM      7  N   UNL     1       3.197  -0.825   0.000  0.00  0.00    +0.000 NA
ATOM      8  N   UNL     1       2.496   0.412   0.000  0.00  0.00    +0.000 NA
ENDBRANCH   1   2
BRANCH   1   9
ATOM      9  C   UNL     1      -1.052  -0.825   0.000  0.00  0.00    +0.000 C 
BRANCH   9  10
ATOM     10  C   UNL     1      -1.754  -0.412   0.000  0.00  0.00    +0.000 A 
ATOM     11  C   UNL     1      -1.754   0.412   0.000  0.00  0.00    +0.000 A 
ATOM     12  C   UNL     1      -2.455  -0.825   0.000  0.00  0.00    +0.000 A 
ATOM     13  C   UNL     1      -2.455   0.825   0.000  0.00  0.00    +0.000 A 
ATOM     14  C   UNL     1      -3.197  -0.412   0.000  0.00  0.00    +0.000 A 
ATOM     15  C   UNL     1      -3.197   0.412   0.000  0.00  0.00    +0.000 A 
ENDBRANCH   9  10
ENDBRANCH   1   9
TORSDOF 3
