REMARK  Name = 
REMARK  3 active torsions:
REMARK  status: ('A' for Active; 'I' for Inactive)
REMARK    1  A    between atoms: C_2  and  C_9
REMARK    2  A    between atoms: C_4  and  C_6
REMARK    3  A    between atoms: C_14  and  C_16
REMARK                            x       y       z     vdW  Elec       q    Type
REMARK                         _______ _______ _______ _____ _____    ______ ____
ROOT
ATOM      1  C   UNL     1       0.491  -1.119   0.000  0.00  0.00    +0.000 C 
ATOM      2  C   UNL     1       0.249  -1.904   0.000  0.00  0.00    +0.000 C 
ATOM      3  O   UNL     1       0.721  -2.571   0.000  0.00  0.00    +0.000 OA
ATOM      4  C   UNL     1      -0.576  -1.904   0.000  0.00  0.00    +0.000 C 
ATOM      5  O   UNL     1      -1.073  -2.571   0.000  0.00  0.00    +0.000 OA
ATOM      6  C   UNL     1      -0.844  -1.119   0.000  0.00  0.00    +0.000 C 
ATOM      7  O   UNL     1      -0.176  -0.634   0.000  0.00  0.00    +0.000 OA
ENDROOT
BRANCH   1   9
ATOM      8  S   UNL     1      -0.144   0.365   0.000  0.00  0.00    +0.000 S 
ATOM      9  C   UNL     1       0.523  -0.120   0.000  0.00  0.00    +0.000 A 
ATOM     10  N   UNL     1       1.191   0.365   0.000  0.00  0.00    +0.000 NA
ATOM     11  C   UNL     1       0.936   1.150   0.000  0.00  0.00    +0.000 A 
ATOM     12  C   UNL     1       0.111   1.150   0.000  0.00  0.00    +0.000 A 
BRANCH  11  13
ATOM     13  C   UNL     1       1.421   1.817   0.000  0.00  0.00    +0.000 C 
ATOM     14  N   UNL     1       2.241   1.731   0.000  0.00  0.00    +0.000 NA
ATOM     15  O   UNL     1       1.085   2.571   0.000  0.00  0.00    +0.000 OA
ENDBRANCH  11  13
ENDBRANCH   1   9
BRANCH   6  16
ATOM     16  C   UNL     1      -1.628  -0.864   0.000  0.00  0.00    +0.000 C 
ATOM     17  O   UNL     1      -2.241  -1.416   0.000  0.00  0.00    +0.000 OA
ENDBRANCH   6  16
TORSDOF 3
