REMARK  Name = 
REMARK  0 active torsions:
REMARK  status: ('A' for Active; 'I' for Inactive)
REMARK                            x       y       z     vdW  Elec       q    Type
REMARK                         _______ _______ _______ _____ _____    ______ ____
ROOT
ATOM      1  C   UNL     1       0.517  -0.406   0.000  0.00  0.00    +0.000 A 
ATOM      2  C   UNL     1       0.519   0.418   0.000  0.00  0.00    +0.000 A 
ATOM      3  C   UNL     1      -0.194   0.830   0.000  0.00  0.00    +0.000 A 
ATOM      4  C   UNL     1      -0.192  -0.817   0.000  0.00  0.00    +0.000 A 
ATOM      5  C   UNL     1      -0.902  -0.410   0.000  0.00  0.00    +0.000 A 
ATOM      6  C   UNL     1      -0.903   0.414   0.000  0.00  0.00    +0.000 A 
ATOM      7  N   UNL     1      -1.617   0.824   0.000  0.00  0.00    +0.000 NA
ATOM      8  C   UNL     1      -2.330   0.410   0.000  0.00  0.00    +0.000 A 
ATOM      9  C   UNL     1      -2.324  -0.418   0.000  0.00  0.00    +0.000 A 
ATOM     10  N   UNL     1      -1.610  -0.824   0.000  0.00  0.00    +0.000 NA
ATOM     11  C   UNL     1       1.981   0.735   0.000  0.00  0.00    +0.000 C 
ATOM     12  N   UNL     1       2.330  -0.008   0.000  0.00  0.00    +0.000 NA
ATOM     13  C   UNL     1       1.963  -0.752   0.000  0.00  0.00    +0.000 C 
ATOM     14  C   UNL     1       1.173   0.930   0.000  0.00  0.00    +0.000 C 
ATOM     15  C   UNL     1       1.155  -0.930   0.000  0.00  0.00    +0.000 C 
ATOM     16  C   UNL     1       1.467  -0.011   0.000  0.00  0.00    +0.000 C 
ENDROOT
TORSDOF 0
