REMARK  Name = 
REMARK  7 active torsions:
REMARK  status: ('A' for Active; 'I' for Inactive)
REMARK    1  A    between atoms: C_1  and  C_6
REMARK    2  A    between atoms: C_1  and  C_7
REMARK    3  A    between atoms: C_4  and  C_8
REMARK    4  A    between atoms: C_4  and  C_13
REMARK    5  A    between atoms: C_6  and  N_17
REMARK    6  A    between atoms: C_7  and  O_19
REMARK    7  A    between atoms: C_8  and  O_19
REMARK                            x       y       z     vdW  Elec       q    Type
REMARK                         _______ _______ _______ _____ _____    ______ ____
ROOT
ATOM      1  C   UNL     1       1.628  -0.774   0.000  0.00  0.00    +0.000 C 
ENDROOT
BRANCH   1   7
ATOM      2  C   UNL     1       3.057  -0.774   0.000  0.00  0.00    +0.000 A 
ATOM      3  C   UNL     1       3.771  -0.361   0.000  0.00  0.00    +0.000 A 
ATOM      4  C   UNL     1       3.228   1.683   0.000  0.00  0.00    +0.000 A 
ATOM      5  C   UNL     1       4.048   1.770   0.000  0.00  0.00    +0.000 A 
ATOM      6  C   UNL     1       2.342   0.464   0.000  0.00  0.00    +0.000 A 
ATOM      7  C   UNL     1       2.342  -0.361   0.000  0.00  0.00    +0.000 A 
ATOM      8  C   UNL     1       3.057   0.876   0.000  0.00  0.00    +0.000 A 
ATOM      9  C   UNL     1       3.771   0.464   0.000  0.00  0.00    +0.000 A 
ATOM     10  S   UNL     1       4.384   1.016   0.000  0.00  0.00    +0.000 S 
ENDBRANCH   1   7
BRANCH   1  11
ATOM     11  C   UNL     1       0.913  -0.361   0.000  0.00  0.00    +0.000 C 
BRANCH  11  12
ATOM     12  O   UNL     1       0.199  -0.774   0.000  0.00  0.00    +0.000 OA
BRANCH  12  13
ATOM     13  C   UNL     1      -0.516  -0.361   0.000  0.00  0.00    +0.000 C 
BRANCH  13  14
ATOM     14  C   UNL     1      -1.230  -0.774   0.000  0.00  0.00    +0.000 C 
BRANCH  14  15
ATOM     15  C   UNL     1      -1.945  -0.361   0.000  0.00  0.00    +0.000 C 
BRANCH  15  19
ATOM     16  C   UNL     1      -3.456  -0.560   0.000  0.00  0.00    +0.000 C 
ATOM     17  C   UNL     1      -2.873  -1.571   0.000  0.00  0.00    +0.000 C 
ATOM     18  C   UNL     1      -3.670  -1.357   0.000  0.00  0.00    +0.000 C 
ATOM     19  N   UNL     1      -2.659  -0.774   0.000  0.00  0.00    +0.000 NA
ATOM     20  O   UNL     1      -4.384  -1.770   0.000  0.00  0.00    +0.000 OA
ENDBRANCH  15  19
ENDBRANCH  14  15
ENDBRANCH  13  14
ENDBRANCH  12  13
ENDBRANCH  11  12
ENDBRANCH   1  11
TORSDOF 7
