REMARK  Name = 
REMARK  2 active torsions:
REMARK  status: ('A' for Active; 'I' for Inactive)
REMARK    1  A    between atoms: N_8  and  N_13
REMARK    2  A    between atoms: N_13  and  C_14
REMARK                            x       y       z     vdW  Elec       q    Type
REMARK                         _______ _______ _______ _____ _____    ______ ____
ROOT
ATOM      1  C   UNL     1      -1.576  -0.338   0.000  0.00  0.00    +0.000 A 
ATOM      2  C   UNL     1      -1.576   0.456   0.000  0.00  0.00    +0.000 A 
ATOM      3  C   UNL     1      -0.181  -0.338   0.000  0.00  0.00    +0.000 C 
ATOM      4  C   UNL     1      -2.223  -0.759   0.000  0.00  0.00    +0.000 A 
ATOM      5  N   UNL     1      -0.879   0.887   0.000  0.00  0.00    +0.000 N 
ATOM      6  C   UNL     1      -2.292   0.909   0.000  0.00  0.00    +0.000 A 
ATOM      7  C   UNL     1      -0.181   0.456   0.000  0.00  0.00    +0.000 C 
ATOM      8  N   UNL     1       0.621  -0.855   0.000  0.00  0.00    +0.000 NA
ATOM      9  C   UNL     1      -2.982  -0.338   0.000  0.00  0.00    +0.000 A 
ATOM     10  C   UNL     1      -0.879   1.820   0.000  0.00  0.00    +0.000 C 
ATOM     11  C   UNL     1      -2.982   0.456   0.000  0.00  0.00    +0.000 A 
ATOM     12  O   UNL     1       0.459   0.871   0.000  0.00  0.00    +0.000 OA
ENDROOT
BRANCH   8  13
ATOM     13  N   UNL     1       1.370  -0.369   0.000  0.00  0.00    +0.000 NA
BRANCH  13  14
ATOM     14  C   UNL     1       2.167  -0.878   0.000  0.00  0.00    +0.000 C 
ATOM     15  N   UNL     1       2.982  -0.402   0.000  0.00  0.00    +0.000 NA
ATOM     16  S   UNL     1       2.163  -1.820   0.000  0.00  0.00    +0.000 S 
ENDBRANCH  13  14
ENDBRANCH   8  13
TORSDOF 2
