REMARK  Name = 
REMARK  2 active torsions:
REMARK  status: ('A' for Active; 'I' for Inactive)
REMARK    1  A    between atoms: C_2  and  C_3
REMARK    2  A    between atoms: C_5  and  N_6
REMARK                            x       y       z     vdW  Elec       q    Type
REMARK                         _______ _______ _______ _____ _____    ______ ____
ROOT
ATOM      1  C   UNL     1       1.127  -2.507   0.000  0.00  0.00    +0.000 C 
ATOM      2  O   UNL     1       0.302  -2.507   0.000  0.00  0.00    +0.000 OA
ATOM      3  C   UNL     1       0.047  -1.722   0.000  0.00  0.00    +0.000 C 
ATOM      4  C   UNL     1       0.715  -1.238   0.000  0.00  0.00    +0.000 C 
ATOM      5  F   UNL     1       0.162  -0.624   0.000  0.00  0.00    +0.000 F 
ATOM      6  F   UNL     1       1.266  -0.624   0.000  0.00  0.00    +0.000 F 
ATOM      7  C   UNL     1       1.382  -1.722   0.000  0.00  0.00    +0.000 C 
ATOM      8  O   UNL     1       2.167  -1.468   0.000  0.00  0.00    +0.000 OA
ENDROOT
BRANCH   3   9
ATOM      9  N   UNL     1      -0.738  -1.468   0.000  0.00  0.00    +0.000 N 
ATOM     10  C   UNL     1      -1.351  -2.019   0.000  0.00  0.00    +0.000 C 
ATOM     11  C   UNL     1      -2.135  -1.765   0.000  0.00  0.00    +0.000 C 
ATOM     12  C   UNL     1      -2.307  -0.958   0.000  0.00  0.00    +0.000 C 
ATOM     13  O   UNL     1      -3.091  -0.703   0.000  0.00  0.00    +0.000 OA
ATOM     14  N   UNL     1      -1.694  -0.406   0.000  0.00  0.00    +0.000 NA
ATOM     15  C   UNL     1      -0.909  -0.660   0.000  0.00  0.00    +0.000 C 
ATOM     16  O   UNL     1      -0.296  -0.108   0.000  0.00  0.00    +0.000 OA
ENDBRANCH   3   9
BRANCH   1  18
ATOM     17  O   UNL     1       2.432  -3.088   0.000  0.00  0.00    +0.000 OA
ATOM     18  C   UNL     1       1.612  -3.175   0.000  0.00  0.00    +0.000 C 
ENDBRANCH   1  18
TORSDOF 2
