REMARK  Name = 
REMARK  2 active torsions:
REMARK  status: ('A' for Active; 'I' for Inactive)
REMARK    1  A    between atoms: C_8  and  N_12
REMARK    2  A    between atoms: C_14  and  N_18
REMARK                            x       y       z     vdW  Elec       q    Type
REMARK                         _______ _______ _______ _____ _____    ______ ____
ROOT
ATOM      1  C   UNL     1      12.393  -9.109   0.000  0.00  0.00    +0.000 A 
ATOM      2  C   UNL     1      12.393  -8.285   0.000  0.00  0.00    +0.000 A 
ATOM      3  S   UNL     1      13.110  -9.621   0.000  0.00  0.00    +0.000 S 
ATOM      4  C   UNL     1      11.681  -9.524   0.000  0.00  0.00    +0.000 A 
ATOM      5  N   UNL     1      13.110  -7.863   0.000  0.00  0.00    +0.000 NA
ATOM      6  C   UNL     1      11.681  -7.877   0.000  0.00  0.00    +0.000 A 
ATOM      7  C   UNL     1      13.833  -9.113   0.000  0.00  0.00    +0.000 A 
ATOM      8  C   UNL     1      10.975  -9.109   0.000  0.00  0.00    +0.000 A 
ATOM      9  C   UNL     1      13.830  -8.282   0.000  0.00  0.00    +0.000 A 
ATOM     10  C   UNL     1      10.975  -8.285   0.000  0.00  0.00    +0.000 A 
ATOM     11  C   UNL     1      14.560  -9.524   0.000  0.00  0.00    +0.000 A 
ATOM     12  C   UNL     1      14.546  -7.853   0.000  0.00  0.00    +0.000 A 
ATOM     13  C   UNL     1      15.287  -9.105   0.000  0.00  0.00    +0.000 A 
ATOM     14  C   UNL     1      15.276  -8.265   0.000  0.00  0.00    +0.000 A 
ENDROOT
BRANCH   8  15
ATOM     15  N   UNL     1      10.265  -9.514   0.000  0.00  0.00    +0.000 N 
ATOM     16  C   UNL     1       9.563  -9.099   0.000  0.00  0.00    +0.000 C 
ATOM     17  C   UNL     1      10.262 -10.331   0.000  0.00  0.00    +0.000 C 
ENDBRANCH   8  15
BRANCH  13  18
ATOM     18  N   UNL     1      15.996  -9.511   0.000  0.00  0.00    +0.000 N 
ATOM     19  C   UNL     1      15.999 -10.324   0.000  0.00  0.00    +0.000 C 
ATOM     20  C   UNL     1      16.698  -9.092   0.000  0.00  0.00    +0.000 C 
ENDBRANCH  13  18
TORSDOF 2
REMARK  Name = 
REMARK  2 active torsions:
REMARK  status: ('A' for Active; 'I' for Inactive)
REMARK    1  A    between atoms: C_8  and  N_12
REMARK    2  A    between atoms: C_14  and  N_18
REMARK                            x       y       z     vdW  Elec       q    Type
REMARK                         _______ _______ _______ _____ _____    ______ ____
ROOT
ATOM      1 CL   UNL     1      13.165 -10.576   0.000  0.00  0.00    +0.000 Cl
ENDROOT
TORSDOF 0
