REMARK  Name = 
REMARK  9 active torsions:
REMARK  status: ('A' for Active; 'I' for Inactive)
REMARK    1  A    between atoms: C_2  and  C_4
REMARK    2  A    between atoms: N_6  and  C_7
REMARK    3  A    between atoms: C_7  and  C_8
REMARK    4  A    between atoms: C_7  and  C_18
REMARK    5  A    between atoms: C_8  and  C_9
REMARK    6  A    between atoms: N_20  and  C_21
REMARK    7  A    between atoms: C_21  and  C_22
REMARK    8  A    between atoms: C_21  and  N_32
REMARK    9  A    between atoms: C_22  and  C_23
REMARK                            x       y       z     vdW  Elec       q    Type
REMARK                         _______ _______ _______ _____ _____    ______ ____
ROOT
ATOM      1  C   UNL     1      -4.150  -1.253   0.000  0.00  0.00    +0.000 C 
ENDROOT
BRANCH   1   2
ATOM      2  C   UNL     1      -3.340  -1.409   0.000  0.00  0.00    +0.000 C 
ATOM      3  O   UNL     1      -3.070  -2.189   0.000  0.00  0.00    +0.000 OA
ATOM      4  N   UNL     1      -2.800  -0.785   0.000  0.00  0.00    +0.000 NA
BRANCH   4   5
ATOM      5  C   UNL     1      -1.990  -0.941   0.000  0.00  0.00    +0.000 C 
BRANCH   5   6
ATOM      6  N   UNL     1      -1.720  -1.721   0.000  0.00  0.00    +0.000 NA
ATOM      7  C   UNL     1      -0.909  -1.877   0.000  0.00  0.00    +0.000 C 
ATOM      8  O   UNL     1      -0.639  -2.656   0.000  0.00  0.00    +0.000 OA
ENDBRANCH   5   6
BRANCH   5   9
ATOM      9  C   UNL     1      -1.450  -0.318   0.000  0.00  0.00    +0.000 C 
BRANCH   9  10
ATOM     10  C   UNL     1      -0.639  -0.473   0.000  0.00  0.00    +0.000 A 
ATOM     11  C   UNL     1      -0.289  -1.221   0.000  0.00  0.00    +0.000 A 
ATOM     12  N   UNL     1       0.529  -1.119   0.000  0.00  0.00    +0.000 NA
ATOM     13  C   UNL     1       0.685  -0.308   0.000  0.00  0.00    +0.000 A 
ATOM     14  C   UNL     1      -0.037   0.090   0.000  0.00  0.00    +0.000 A 
ATOM     15  C   UNL     1      -0.053   0.915   0.000  0.00  0.00    +0.000 A 
ATOM     16  C   UNL     1       0.653   1.341   0.000  0.00  0.00    +0.000 A 
ATOM     17  C   UNL     1       1.376   0.943   0.000  0.00  0.00    +0.000 A 
ATOM     18  C   UNL     1       1.392   0.118   0.000  0.00  0.00    +0.000 A 
ENDBRANCH   9  10
ENDBRANCH   5   9
ENDBRANCH   4   5
ENDBRANCH   1   2
BRANCH   1  21
ATOM     19  C   UNL     1      -3.880   0.150   0.000  0.00  0.00    +0.000 C 
ATOM     20  O   UNL     1      -3.070  -0.006   0.000  0.00  0.00    +0.000 OA
ATOM     21  N   UNL     1      -4.420  -0.473   0.000  0.00  0.00    +0.000 NA
BRANCH  19  23
ATOM     22  C   UNL     1      -4.420   1.709   0.000  0.00  0.00    +0.000 C 
ATOM     23  C   UNL     1      -4.150   0.930   0.000  0.00  0.00    +0.000 C 
ATOM     24  C   UNL     1      -3.370   1.200   0.000  0.00  0.00    +0.000 C 
ATOM     25  N   UNL     1      -4.930   0.660   0.000  0.00  0.00    +0.000 NA
ENDBRANCH  19  23
ENDBRANCH   1  21
BRANCH   1  26
ATOM     26  C   UNL     1      -4.690  -1.877   0.000  0.00  0.00    +0.000 C 
BRANCH  26  27
ATOM     27  C   UNL     1      -5.500  -1.721   0.000  0.00  0.00    +0.000 A 
ATOM     28  C   UNL     1      -5.850  -0.974   0.000  0.00  0.00    +0.000 A 
ATOM     29  N   UNL     1      -6.669  -1.076   0.000  0.00  0.00    +0.000 NA
ATOM     30  C   UNL     1      -6.825  -1.886   0.000  0.00  0.00    +0.000 A 
ATOM     31  C   UNL     1      -6.103  -2.285   0.000  0.00  0.00    +0.000 A 
ATOM     32  C   UNL     1      -6.087  -3.109   0.000  0.00  0.00    +0.000 A 
ATOM     33  C   UNL     1      -6.793  -3.536   0.000  0.00  0.00    +0.000 A 
ATOM     34  C   UNL     1      -7.515  -3.137   0.000  0.00  0.00    +0.000 A 
ATOM     35  C   UNL     1      -7.531  -2.312   0.000  0.00  0.00    +0.000 A 
ENDBRANCH  26  27
ENDBRANCH   1  26
TORSDOF 9
