REMARK  Name = 
REMARK  6 active torsions:
REMARK  status: ('A' for Active; 'I' for Inactive)
REMARK    1  A    between atoms: C_7  and  C_8
REMARK    2  A    between atoms: C_10  and  N_34
REMARK    3  A    between atoms: N_16  and  C_18
REMARK    4  A    between atoms: C_18  and  C_20
REMARK    5  A    between atoms: C_22  and  C_30
REMARK    6  A    between atoms: C_24  and  C_26
REMARK                            x       y       z     vdW  Elec       q    Type
REMARK                         _______ _______ _______ _____ _____    ______ ____
ROOT
ATOM      1  C   UNL     1       0.000  -2.475   0.000  0.00  0.00    +0.000 C 
ATOM      2  C   UNL     1       0.000  -1.650   0.000  0.00  0.00    +0.000 C 
ATOM      3  C   UNL     1       0.715  -1.238   0.000  0.00  0.00    +0.000 C 
ATOM      4  C   UNL     1       1.429  -1.650   0.000  0.00  0.00    +0.000 C 
ATOM      5  C   UNL     1       1.429  -2.475   0.000  0.00  0.00    +0.000 C 
ATOM      6  N   UNL     1       0.715  -2.888   0.000  0.00  0.00    +0.000 N 
ATOM      7  C   UNL     1       0.715  -3.712   0.000  0.00  0.00    +0.000 C 
ATOM      8  O   UNL     1       0.000  -4.125   0.000  0.00  0.00    +0.000 OA
ATOM      9  N   UNL     1       1.429  -4.125   0.000  0.00  0.00    +0.000 N 
ATOM     10  C   UNL     1       1.429  -4.950   0.000  0.00  0.00    +0.000 C 
ENDROOT
BRANCH   3  11
ATOM     11  N   UNL     1       0.715  -0.412   0.000  0.00  0.00    +0.000 NA
ATOM     12  C   UNL     1       0.000   0.000   0.000  0.00  0.00    +0.000 C 
ATOM     13  C   UNL     1       0.000   0.825   0.000  0.00  0.00    +0.000 C 
ATOM     14  N   UNL     1       0.715   1.238   0.000  0.00  0.00    +0.000 N 
ATOM     15  C   UNL     1       1.429   0.825   0.000  0.00  0.00    +0.000 C 
ATOM     16  C   UNL     1       1.429   0.000   0.000  0.00  0.00    +0.000 C 
ATOM     17  C   UNL     1       0.715   2.062   0.000  0.00  0.00    +0.000 C 
ATOM     18  O   UNL     1       0.000   2.475   0.000  0.00  0.00    +0.000 OA
ATOM     19  C   UNL     1       1.429   2.475   0.000  0.00  0.00    +0.000 C 
ENDBRANCH   3  11
BRANCH   1  26
ATOM     20  C   UNL     1      -1.429  -1.650   0.000  0.00  0.00    +0.000 C 
ATOM     21  C   UNL     1      -1.429  -2.475   0.000  0.00  0.00    +0.000 A 
ATOM     22  C   UNL     1      -2.143  -2.888   0.000  0.00  0.00    +0.000 A 
ATOM     23  C   UNL     1      -2.143  -3.712   0.000  0.00  0.00    +0.000 A 
ATOM     24  C   UNL     1      -1.429  -4.125   0.000  0.00  0.00    +0.000 A 
ATOM     25  C   UNL     1      -0.715  -3.712   0.000  0.00  0.00    +0.000 A 
ATOM     26  C   UNL     1      -0.715  -2.888   0.000  0.00  0.00    +0.000 A 
ATOM     27  F   UNL     1      -2.858  -4.125   0.000  0.00  0.00    +0.000 F 
ENDBRANCH   1  26
BRANCH   9  28
ATOM     28  C   UNL     1       2.143  -3.712   0.000  0.00  0.00    +0.000 C 
ATOM     29  C   UNL     1       2.143  -2.888   0.000  0.00  0.00    +0.000 C 
BRANCH  28  30
ATOM     30  C   UNL     1       2.858  -4.125   0.000  0.00  0.00    +0.000 A 
ATOM     31  C   UNL     1       3.572  -3.712   0.000  0.00  0.00    +0.000 A 
ATOM     32  C   UNL     1       4.287  -4.125   0.000  0.00  0.00    +0.000 A 
ATOM     33  C   UNL     1       4.287  -4.950   0.000  0.00  0.00    +0.000 A 
ATOM     34  C   UNL     1       3.572  -5.362   0.000  0.00  0.00    +0.000 A 
ATOM     35  C   UNL     1       2.858  -4.950   0.000  0.00  0.00    +0.000 A 
BRANCH  34  36
ATOM     36  C   UNL     1       3.572  -6.188   0.000  0.00  0.00    +0.000 C 
ATOM     37  F   UNL     1       3.572  -7.013   0.000  0.00  0.00    +0.000 F 
ATOM     38  F   UNL     1       4.397  -6.188   0.000  0.00  0.00    +0.000 F 
ATOM     39  F   UNL     1       2.747  -6.188   0.000  0.00  0.00    +0.000 F 
ENDBRANCH  34  36
BRANCH  32  40
ATOM     40  C   UNL     1       5.001  -3.712   0.000  0.00  0.00    +0.000 C 
ATOM     41  F   UNL     1       5.716  -3.300   0.000  0.00  0.00    +0.000 F 
ATOM     42  F   UNL     1       5.414  -4.427   0.000  0.00  0.00    +0.000 F 
ATOM     43  F   UNL     1       4.589  -2.998   0.000  0.00  0.00    +0.000 F 
ENDBRANCH  32  40
ENDBRANCH  28  30
ENDBRANCH   9  28
TORSDOF 6
