REMARK  Name = 
REMARK  42 active torsions:
REMARK  status: ('A' for Active; 'I' for Inactive)
REMARK    1  A    between atoms: C_11  and  C_17
REMARK    2  A    between atoms: C_11  and  C_19
REMARK    3  A    between atoms: C_12  and  C_18
REMARK    4  A    between atoms: C_12  and  C_20
REMARK    5  A    between atoms: C_13  and  C_21
REMARK    6  A    between atoms: C_13  and  C_23
REMARK    7  A    between atoms: C_14  and  C_22
REMARK    8  A    between atoms: C_14  and  C_24
REMARK    9  A    between atoms: C_15  and  C_25
REMARK   10  A    between atoms: C_15  and  C_27
REMARK   11  A    between atoms: C_16  and  C_26
REMARK   12  A    between atoms: C_16  and  C_28
REMARK   13  A    between atoms: C_17  and  C_37
REMARK   14  A    between atoms: C_18  and  C_38
REMARK   15  A    between atoms: C_19  and  C_39
REMARK   16  A    between atoms: C_20  and  C_40
REMARK   17  A    between atoms: C_21  and  C_39
REMARK   18  A    between atoms: C_22  and  C_40
REMARK   19  A    between atoms: C_23  and  C_41
REMARK   20  A    between atoms: C_24  and  C_42
REMARK   21  A    between atoms: C_25  and  C_41
REMARK   22  A    between atoms: C_26  and  C_42
REMARK   23  A    between atoms: C_27  and  C_43
REMARK   24  A    between atoms: C_28  and  C_44
REMARK   25  A    between atoms: C_29  and  C_31
REMARK   26  A    between atoms: C_29  and  C_43
REMARK   27  A    between atoms: C_30  and  C_32
REMARK   28  A    between atoms: C_30  and  C_44
REMARK   29  A    between atoms: C_31  and  O_53
REMARK   30  A    between atoms: C_32  and  O_54
REMARK   31  A    between atoms: C_33  and  C_45
REMARK   32  A    between atoms: C_33  and  O_55
REMARK   33  A    between atoms: C_34  and  C_45
REMARK   34  A    between atoms: C_34  and  O_56
REMARK   35  A    between atoms: C_35  and  C_46
REMARK   36  A    between atoms: C_35  and  O_53
REMARK   37  A    between atoms: C_36  and  C_46
REMARK   38  A    between atoms: C_36  and  O_57
REMARK   39  A    between atoms: C_46  and  O_54
REMARK   40  A    between atoms: O_55  and  P_58
REMARK   41  A    between atoms: O_56  and  P_59
REMARK   42  A    between atoms: O_57  and  P_59
REMARK                            x       y       z     vdW  Elec       q    Type
REMARK                         _______ _______ _______ _____ _____    ______ ____
ROOT
ATOM      1  C   UNL     1       0.357   2.254   0.000  0.00  0.00    +0.000 C 
ENDROOT
BRANCH   1   2
ATOM      2  C   UNL     1      -0.357   2.666   0.000  0.00  0.00    +0.000 C 
BRANCH   2   3
ATOM      3  O   UNL     1      -1.072   2.254   0.000  0.00  0.00    +0.000 OA
BRANCH   3   4
ATOM      4  C   UNL     1      -1.786   2.666   0.000  0.00  0.00    +0.000 C 
BRANCH   4   5
ATOM      5  C   UNL     1      -2.501   2.254   0.000  0.00  0.00    +0.000 C 
BRANCH   5   7
ATOM      6  C   UNL     1      -3.215   3.491   0.000  0.00  0.00    +0.000 C 
ATOM      7  C   UNL     1      -3.215   2.666   0.000  0.00  0.00    +0.000 C 
BRANCH   7   8
ATOM      8  C   UNL     1      -3.929   2.254   0.000  0.00  0.00    +0.000 C 
BRANCH   8   9
ATOM      9  C   UNL     1      -4.644   2.666   0.000  0.00  0.00    +0.000 C 
BRANCH   9  10
ATOM     10  C   UNL     1      -5.359   2.254   0.000  0.00  0.00    +0.000 C 
BRANCH  10  12
ATOM     11  C   UNL     1      -6.073   3.491   0.000  0.00  0.00    +0.000 C 
ATOM     12  C   UNL     1      -6.073   2.666   0.000  0.00  0.00    +0.000 C 
BRANCH  12  13
ATOM     13  C   UNL     1      -6.787   2.254   0.000  0.00  0.00    +0.000 C 
BRANCH  13  14
ATOM     14  C   UNL     1      -7.502   2.666   0.000  0.00  0.00    +0.000 C 
BRANCH  14  15
ATOM     15  C   UNL     1      -8.216   2.254   0.000  0.00  0.00    +0.000 C 
BRANCH  15  17
ATOM     16  C   UNL     1      -8.931   3.491   0.000  0.00  0.00    +0.000 C 
ATOM     17  C   UNL     1      -8.931   2.666   0.000  0.00  0.00    +0.000 C 
BRANCH  17  18
ATOM     18  C   UNL     1      -9.645   2.254   0.000  0.00  0.00    +0.000 C 
BRANCH  18  19
ATOM     19  C   UNL     1     -10.360   2.666   0.000  0.00  0.00    +0.000 C 
BRANCH  19  20
ATOM     20  C   UNL     1     -11.074   2.254   0.000  0.00  0.00    +0.000 C 
BRANCH  20  23
ATOM     21  C   UNL     1     -12.503   2.254   0.000  0.00  0.00    +0.000 C 
ATOM     22  C   UNL     1     -11.789   3.491   0.000  0.00  0.00    +0.000 C 
ATOM     23  C   UNL     1     -11.789   2.666   0.000  0.00  0.00    +0.000 C 
ENDBRANCH  20  23
ENDBRANCH  19  20
ENDBRANCH  18  19
ENDBRANCH  17  18
ENDBRANCH  15  17
ENDBRANCH  14  15
ENDBRANCH  13  14
ENDBRANCH  12  13
ENDBRANCH  10  12
ENDBRANCH   9  10
ENDBRANCH   8   9
ENDBRANCH   7   8
ENDBRANCH   5   7
ENDBRANCH   4   5
ENDBRANCH   3   4
ENDBRANCH   2   3
ENDBRANCH   1   2
BRANCH   1  24
ATOM     24  C   UNL     1       0.357   1.429   0.000  0.00  0.00    +0.000 C 
BRANCH  24  25
ATOM     25  O   UNL     1       1.072   1.016   0.000  0.00  0.00    +0.000 OA
BRANCH  25  28
ATOM     26  O   UNL     1       0.247   0.191   0.000  0.00  0.00    +0.000 OA
ATOM     27  O   UNL     1       1.072  -0.633   0.000  0.00  0.00    +0.000 OA
ATOM     28  P   UNL     1       1.072   0.191   0.000  0.00  0.00    +0.000 P 
BRANCH  28  29
ATOM     29  O   UNL     1       1.897   0.191   0.000  0.00  0.00    +0.000 OA
BRANCH  29  30
ATOM     30  C   UNL     1       2.309  -0.523   0.000  0.00  0.00    +0.000 C 
BRANCH  30  31
ATOM     31  C   UNL     1       1.897  -1.238   0.000  0.00  0.00    +0.000 C 
ATOM     32  O   UNL     1       1.072  -1.238   0.000  0.00  0.00    +0.000 OA
BRANCH  31  33
ATOM     33  C   UNL     1       2.309  -1.952   0.000  0.00  0.00    +0.000 C 
BRANCH  33  34
ATOM     34  O   UNL     1       1.897  -2.666   0.000  0.00  0.00    +0.000 OA
BRANCH  34  38
ATOM     35  O   UNL     1       1.072  -1.841   0.000  0.00  0.00    +0.000 OA
ATOM     36  O   UNL     1       1.072  -3.491   0.000  0.00  0.00    +0.000 OA
ATOM     37  O   UNL     1       0.247  -2.666   0.000  0.00  0.00    +0.000 OA
ATOM     38  P   UNL     1       1.072  -2.666   0.000  0.00  0.00    +0.000 P 
ENDBRANCH  34  38
ENDBRANCH  33  34
ENDBRANCH  31  33
ENDBRANCH  30  31
ENDBRANCH  29  30
ENDBRANCH  28  29
ENDBRANCH  25  28
ENDBRANCH  24  25
ENDBRANCH   1  24
BRANCH   1  39
ATOM     39  O   UNL     1       1.072   2.666   0.000  0.00  0.00    +0.000 OA
BRANCH  39  40
ATOM     40  C   UNL     1       1.786   2.254   0.000  0.00  0.00    +0.000 C 
BRANCH  40  41
ATOM     41  C   UNL     1       2.501   2.666   0.000  0.00  0.00    +0.000 C 
BRANCH  41  43
ATOM     42  C   UNL     1       3.215   1.429   0.000  0.00  0.00    +0.000 C 
ATOM     43  C   UNL     1       3.215   2.254   0.000  0.00  0.00    +0.000 C 
BRANCH  43  44
ATOM     44  C   UNL     1       3.929   2.666   0.000  0.00  0.00    +0.000 C 
BRANCH  44  45
ATOM     45  C   UNL     1       4.644   2.254   0.000  0.00  0.00    +0.000 C 
BRANCH  45  46
ATOM     46  C   UNL     1       5.359   2.666   0.000  0.00  0.00    +0.000 C 
BRANCH  46  48
ATOM     47  C   UNL     1       6.073   1.429   0.000  0.00  0.00    +0.000 C 
ATOM     48  C   UNL     1       6.073   2.254   0.000  0.00  0.00    +0.000 C 
BRANCH  48  49
ATOM     49  C   UNL     1       6.787   2.666   0.000  0.00  0.00    +0.000 C 
BRANCH  49  50
ATOM     50  C   UNL     1       7.502   2.254   0.000  0.00  0.00    +0.000 C 
BRANCH  50  51
ATOM     51  C   UNL     1       8.216   2.666   0.000  0.00  0.00    +0.000 C 
BRANCH  51  53
ATOM     52  C   UNL     1       8.931   1.429   0.000  0.00  0.00    +0.000 C 
ATOM     53  C   UNL     1       8.931   2.254   0.000  0.00  0.00    +0.000 C 
BRANCH  53  54
ATOM     54  C   UNL     1       9.645   2.666   0.000  0.00  0.00    +0.000 C 
BRANCH  54  55
ATOM     55  C   UNL     1      10.360   2.254   0.000  0.00  0.00    +0.000 C 
BRANCH  55  56
ATOM     56  C   UNL     1      11.074   2.666   0.000  0.00  0.00    +0.000 C 
BRANCH  56  59
ATOM     57  C   UNL     1      12.503   2.666   0.000  0.00  0.00    +0.000 C 
ATOM     58  C   UNL     1      11.789   1.429   0.000  0.00  0.00    +0.000 C 
ATOM     59  C   UNL     1      11.789   2.254   0.000  0.00  0.00    +0.000 C 
ENDBRANCH  56  59
ENDBRANCH  55  56
ENDBRANCH  54  55
ENDBRANCH  53  54
ENDBRANCH  51  53
ENDBRANCH  50  51
ENDBRANCH  49  50
ENDBRANCH  48  49
ENDBRANCH  46  48
ENDBRANCH  45  46
ENDBRANCH  44  45
ENDBRANCH  43  44
ENDBRANCH  41  43
ENDBRANCH  40  41
ENDBRANCH  39  40
ENDBRANCH   1  39
TORSDOF 42
