REMARK  Name = 
REMARK  5 active torsions:
REMARK  status: ('A' for Active; 'I' for Inactive)
REMARK    1  A    between atoms: C_1  and  C_2
REMARK    2  A    between atoms: C_1  and  C_3
REMARK    3  A    between atoms: C_1  and  C_4
REMARK    4  A    between atoms: C_3  and  C_15
REMARK    5  A    between atoms: C_15  and  N_16
REMARK                            x       y       z     vdW  Elec       q    Type
REMARK                         _______ _______ _______ _____ _____    ______ ____
ROOT
ATOM      1  C   UNL     1      -0.491   1.350   0.000  0.00  0.00    +0.000 C 
ENDROOT
BRANCH   1   2
ATOM      2  C   UNL     1       0.224   0.938   0.000  0.00  0.00    +0.000 A 
ATOM      3  C   UNL     1       0.224   0.113   0.000  0.00  0.00    +0.000 A 
ATOM      4  C   UNL     1       0.938  -0.300   0.000  0.00  0.00    +0.000 A 
ATOM      5  C   UNL     1       1.653   0.112   0.000  0.00  0.00    +0.000 A 
ATOM      6  C   UNL     1       1.653   0.937   0.000  0.00  0.00    +0.000 A 
ATOM      7  C   UNL     1       0.938   1.350   0.000  0.00  0.00    +0.000 A 
ATOM      8  C   UNL     1       2.367  -0.300   0.000  0.00  0.00    +0.000 C 
ENDBRANCH   1   2
BRANCH   1   9
ATOM      9  C   UNL     1      -1.205   0.938   0.000  0.00  0.00    +0.000 A 
ATOM     10  C   UNL     1      -1.920   1.350   0.000  0.00  0.00    +0.000 A 
ATOM     11  C   UNL     1      -2.634   0.937   0.000  0.00  0.00    +0.000 A 
ATOM     12  C   UNL     1      -2.634   0.112   0.000  0.00  0.00    +0.000 A 
ATOM     13  C   UNL     1      -1.920  -0.300   0.000  0.00  0.00    +0.000 A 
ATOM     14  C   UNL     1      -1.205   0.112   0.000  0.00  0.00    +0.000 A 
ENDBRANCH   1   9
BRANCH   1  15
ATOM     15  C   UNL     1      -0.491   2.175   0.000  0.00  0.00    +0.000 C 
BRANCH  15  16
ATOM     16  C   UNL     1       0.224   2.587   0.000  0.00  0.00    +0.000 C 
BRANCH  16  17
ATOM     17  N   UNL     1       0.224   3.413   0.000  0.00  0.00    +0.000 NA
ATOM     18  C   UNL     1      -0.491   3.825   0.000  0.00  0.00    +0.000 C 
ATOM     19  C   UNL     1       0.938   3.825   0.000  0.00  0.00    +0.000 C 
ENDBRANCH  16  17
ENDBRANCH  15  16
ENDBRANCH   1  15
TORSDOF 5
