REMARK  Name = 
REMARK  12 active torsions:
REMARK  status: ('A' for Active; 'I' for Inactive)
REMARK    1  A    between atoms: N_12  and  C_23
REMARK    2  A    between atoms: N_13  and  C_20
REMARK    3  A    between atoms: N_14  and  C_39
REMARK    4  A    between atoms: C_15  and  C_21
REMARK    5  A    between atoms: C_19  and  C_20
REMARK    6  A    between atoms: C_20  and  C_22
REMARK    7  A    between atoms: C_23  and  C_24
REMARK    8  A    between atoms: C_23  and  C_27
REMARK    9  A    between atoms: C_27  and  C_31
REMARK   10  A    between atoms: C_30  and  C_32
REMARK   11  A    between atoms: C_37  and  C_38
REMARK   12  A    between atoms: C_39  and  C_40
REMARK                            x       y       z     vdW  Elec       q    Type
REMARK                         _______ _______ _______ _____ _____    ______ ____
ROOT
ATOM      1  C   UNL     1      -1.444   1.944   0.000  0.00  0.00    +0.000 C 
ENDROOT
BRANCH   1   8
ATOM      2  O   UNL     1      -0.015   1.944   0.000  0.00  0.00    +0.000 OA
ATOM      3  N   UNL     1      -0.730   3.182   0.000  0.00  0.00    +0.000 N 
ATOM      4  C   UNL     1      -0.062   3.667   0.000  0.00  0.00    +0.000 C 
ATOM      5  C   UNL     1      -0.317   4.452   0.000  0.00  0.00    +0.000 C 
ATOM      6  C   UNL     1      -1.142   4.452   0.000  0.00  0.00    +0.000 C 
ATOM      7  C   UNL     1      -1.397   3.667   0.000  0.00  0.00    +0.000 C 
ATOM      8  C   UNL     1      -0.730   2.357   0.000  0.00  0.00    +0.000 C 
BRANCH   4  11
ATOM      9  O   UNL     1       0.894   2.605   0.000  0.00  0.00    +0.000 OA
ATOM     10  N   UNL     1       1.335   3.964   0.000  0.00  0.00    +0.000 N 
ATOM     11  C   UNL     1       0.722   3.412   0.000  0.00  0.00    +0.000 C 
ATOM     12  H   UNL     1       1.229   4.465   0.000  0.00  0.00    +0.000 HD
BRANCH  10  13
ATOM     13  C   UNL     1       2.120   3.709   0.000  0.00  0.00    +0.000 C 
BRANCH  13  14
ATOM     14  C   UNL     1       2.292   2.902   0.000  0.00  0.00    +0.000 C 
ATOM     15  C   UNL     1       3.076   2.647   0.000  0.00  0.00    +0.000 C 
ATOM     16  C   UNL     1       1.678   2.350   0.000  0.00  0.00    +0.000 C 
ENDBRANCH  13  14
BRANCH  13  18
ATOM     17  O   UNL     1       2.562   5.068   0.000  0.00  0.00    +0.000 OA
ATOM     18  C   UNL     1       2.733   4.261   0.000  0.00  0.00    +0.000 C 
BRANCH  18  22
ATOM     19  F   UNL     1       3.263   3.222   0.000  0.00  0.00    +0.000 F 
ATOM     20  F   UNL     1       3.773   4.791   0.000  0.00  0.00    +0.000 F 
ATOM     21  F   UNL     1       4.303   3.751   0.000  0.00  0.00    +0.000 F 
ATOM     22  C   UNL     1       3.518   4.006   0.000  0.00  0.00    +0.000 C 
ENDBRANCH  18  22
ENDBRANCH  13  18
ENDBRANCH  10  13
ENDBRANCH   4  11
ENDBRANCH   1   8
BRANCH   1  24
ATOM     23  O   UNL     1      -2.873   1.119   0.000  0.00  0.00    +0.000 OA
ATOM     24  N   UNL     1      -1.444   1.119   0.000  0.00  0.00    +0.000 N 
ATOM     25  C   UNL     1      -2.159   0.707   0.000  0.00  0.00    +0.000 C 
ATOM     26  H   UNL     1      -1.001   0.864   0.000  0.00  0.00    +0.000 HD
BRANCH  25  27
ATOM     27  C   UNL     1      -2.159  -0.118   0.000  0.00  0.00    +0.000 A 
ATOM     28  C   UNL     1      -2.873  -0.530   0.000  0.00  0.00    +0.000 A 
ATOM     29  C   UNL     1      -1.444  -0.530   0.000  0.00  0.00    +0.000 A 
ATOM     30  C   UNL     1      -2.873  -1.356   0.000  0.00  0.00    +0.000 A 
ATOM     31  C   UNL     1      -1.444  -1.356   0.000  0.00  0.00    +0.000 A 
ATOM     32  C   UNL     1      -2.159  -1.768   0.000  0.00  0.00    +0.000 A 
BRANCH  32  35
ATOM     33  O   UNL     1      -1.444  -3.006   0.000  0.00  0.00    +0.000 OA
ATOM     34  N   UNL     1      -2.873  -3.006   0.000  0.00  0.00    +0.000 N 
ATOM     35  C   UNL     1      -2.159  -2.593   0.000  0.00  0.00    +0.000 C 
ATOM     36  H   UNL     1      -3.316  -2.750   0.000  0.00  0.00    +0.000 HD
BRANCH  34  37
ATOM     37  C   UNL     1      -2.873  -3.831   0.000  0.00  0.00    +0.000 C 
BRANCH  37  40
ATOM     38  O   UNL     1      -3.588  -5.068   0.000  0.00  0.00    +0.000 OA
ATOM     39  O   UNL     1      -4.303  -3.831   0.000  0.00  0.00    +0.000 OA
ATOM     40  C   UNL     1      -3.588  -4.243   0.000  0.00  0.00    +0.000 C 
ENDBRANCH  37  40
ENDBRANCH  34  37
ENDBRANCH  32  35
ENDBRANCH  25  27
ENDBRANCH   1  24
BRANCH   1  41
ATOM     41  C   UNL     1      -2.159   2.357   0.000  0.00  0.00    +0.000 C 
ATOM     42  C   UNL     1      -2.159   3.182   0.000  0.00  0.00    +0.000 C 
ATOM     43  C   UNL     1      -2.873   1.944   0.000  0.00  0.00    +0.000 C 
ENDBRANCH   1  41
TORSDOF 12
