REMARK  Name = 
REMARK  6 active torsions:
REMARK  status: ('A' for Active; 'I' for Inactive)
REMARK    1  A    between atoms: C_11  and  O_12
REMARK    2  A    between atoms: O_12  and  C_13
REMARK    3  A    between atoms: C_13  and  C_14
REMARK    4  A    between atoms: C_14  and  C_15
REMARK    5  A    between atoms: C_15  and  N_16
REMARK    6  A    between atoms: N_16  and  C_17
REMARK                            x       y       z     vdW  Elec       q    Type
REMARK                         _______ _______ _______ _____ _____    ______ ____
ROOT
ATOM      1  C   UNL     1      -3.802   1.575   0.000  0.00  0.00    +0.000 A 
ATOM      2  C   UNL     1      -3.802   0.749   0.000  0.00  0.00    +0.000 A 
ATOM      3  C   UNL     1      -3.088   0.327   0.000  0.00  0.00    +0.000 A 
ATOM      4  C   UNL     1      -2.379   0.746   0.000  0.00  0.00    +0.000 A 
ATOM      5  C   UNL     1      -2.379   1.577   0.000  0.00  0.00    +0.000 A 
ATOM      6  N   UNL     1      -1.663   1.995   0.000  0.00  0.00    +0.000 NA
ATOM      7  C   UNL     1      -0.948   1.580   0.000  0.00  0.00    +0.000 A 
ATOM      8  C   UNL     1      -0.235   1.995   0.000  0.00  0.00    +0.000 A 
ATOM      9  C   UNL     1       0.479   1.585   0.000  0.00  0.00    +0.000 A 
ATOM     10  C   UNL     1       0.479   0.758   0.000  0.00  0.00    +0.000 A 
ATOM     11  C   UNL     1      -0.234   0.345   0.000  0.00  0.00    +0.000 A 
ATOM     12  C   UNL     1      -0.948   0.746   0.000  0.00  0.00    +0.000 A 
ATOM     13  C   UNL     1      -3.092   1.984   0.000  0.00  0.00    +0.000 A 
ENDROOT
BRANCH  11  14
ATOM     14  O   UNL     1      -0.234  -0.477   0.000  0.00  0.00    +0.000 OA
BRANCH  14  15
ATOM     15  C   UNL     1       0.343  -1.080   0.000  0.00  0.00    +0.000 C 
BRANCH  15  16
ATOM     16  C   UNL     1       1.058  -0.664   0.000  0.00  0.00    +0.000 C 
ATOM     17  O   UNL     1       1.058   0.160   0.000  0.00  0.00    +0.000 OA
BRANCH  16  18
ATOM     18  C   UNL     1       1.654  -1.108   0.000  0.00  0.00    +0.000 C 
BRANCH  18  19
ATOM     19  N   UNL     1       2.377  -0.768   0.000  0.00  0.00    +0.000 NA
BRANCH  19  20
ATOM     20  C   UNL     1       3.091  -1.166   0.000  0.00  0.00    +0.000 C 
ATOM     21  C   UNL     1       3.091  -1.995   0.000  0.00  0.00    +0.000 C 
ATOM     22  C   UNL     1       3.802  -0.749   0.000  0.00  0.00    +0.000 C 
ENDBRANCH  19  20
ENDBRANCH  18  19
ENDBRANCH  16  18
ENDBRANCH  15  16
ENDBRANCH  14  15
ENDBRANCH  11  14
TORSDOF 6
