REMARK  Name = 
REMARK  5 active torsions:
REMARK  status: ('A' for Active; 'I' for Inactive)
REMARK    1  A    between atoms: C_5  and  C_7
REMARK    2  A    between atoms: N_11  and  C_12
REMARK    3  A    between atoms: C_15  and  O_16
REMARK    4  A    between atoms: O_16  and  C_17
REMARK    5  A    between atoms: C_22  and  C_23
REMARK                            x       y       z     vdW  Elec       q    Type
REMARK                         _______ _______ _______ _____ _____    ______ ____
ROOT
ATOM      1  C   UNL     1      -0.715  -2.888   0.000  0.00  0.00    +0.000 A 
ATOM      2  C   UNL     1      -0.715  -3.712   0.000  0.00  0.00    +0.000 A 
ATOM      3  C   UNL     1      -1.429  -4.125   0.000  0.00  0.00    +0.000 A 
ATOM      4  C   UNL     1      -2.143  -3.712   0.000  0.00  0.00    +0.000 A 
ATOM      5  C   UNL     1      -2.143  -2.888   0.000  0.00  0.00    +0.000 A 
ATOM      6  C   UNL     1      -1.429  -2.475   0.000  0.00  0.00    +0.000 A 
ENDROOT
BRANCH   1  11
ATOM      7  C   UNL     1       0.000   0.000   0.000  0.00  0.00    +0.000 A 
ATOM      8  N   UNL     1      -0.715  -0.412   0.000  0.00  0.00    +0.000 NA
ATOM      9  N   UNL     1      -0.715  -1.238   0.000  0.00  0.00    +0.000 NA
ATOM     10  C   UNL     1       0.000  -1.650   0.000  0.00  0.00    +0.000 A 
ATOM     11  N   UNL     1       0.000  -2.475   0.000  0.00  0.00    +0.000 NA
ATOM     12  C   UNL     1       0.715  -1.238   0.000  0.00  0.00    +0.000 A 
ATOM     13  C   UNL     1       0.715  -0.412   0.000  0.00  0.00    +0.000 A 
ATOM     14  C   UNL     1       1.429   0.000   0.000  0.00  0.00    +0.000 A 
ATOM     15  C   UNL     1       2.143  -0.412   0.000  0.00  0.00    +0.000 A 
ATOM     16  C   UNL     1       2.143  -1.238   0.000  0.00  0.00    +0.000 A 
ATOM     17  C   UNL     1       1.429  -1.650   0.000  0.00  0.00    +0.000 A 
BRANCH   7  22
ATOM     18  C   UNL     1      -0.897   2.762   0.000  0.00  0.00    +0.000 C 
ATOM     19  C   UNL     1      -0.412   2.095   0.000  0.00  0.00    +0.000 A 
ATOM     20  C   UNL     1       0.412   2.095   0.000  0.00  0.00    +0.000 A 
ATOM     21  S   UNL     1       0.667   1.310   0.000  0.00  0.00    +0.000 S 
ATOM     22  C   UNL     1       0.000   0.825   0.000  0.00  0.00    +0.000 A 
ATOM     23  C   UNL     1      -0.667   1.310   0.000  0.00  0.00    +0.000 A 
ENDBRANCH   7  22
ENDBRANCH   1  11
BRANCH   4  24
ATOM     24  O   UNL     1      -2.858  -4.125   0.000  0.00  0.00    +0.000 OA
BRANCH  24  25
ATOM     25  C   UNL     1      -2.858  -4.950   0.000  0.00  0.00    +0.000 A 
ATOM     26  N   UNL     1      -2.143  -5.362   0.000  0.00  0.00    +0.000 NA
ATOM     27  C   UNL     1      -2.143  -6.188   0.000  0.00  0.00    +0.000 A 
ATOM     28  C   UNL     1      -2.858  -6.600   0.000  0.00  0.00    +0.000 A 
ATOM     29  C   UNL     1      -3.572  -6.188   0.000  0.00  0.00    +0.000 A 
ATOM     30  C   UNL     1      -3.572  -5.362   0.000  0.00  0.00    +0.000 A 
BRANCH  30  31
ATOM     31  C   UNL     1      -4.287  -4.950   0.000  0.00  0.00    +0.000 A 
ATOM     32  N   UNL     1      -5.001  -5.362   0.000  0.00  0.00    +0.000 NA
ATOM     33  C   UNL     1      -5.716  -4.950   0.000  0.00  0.00    +0.000 A 
ATOM     34  N   UNL     1      -6.430  -5.362   0.000  0.00  0.00    +0.000 NA
ATOM     35  N   UNL     1      -5.716  -4.125   0.000  0.00  0.00    +0.000 NA
ATOM     36  C   UNL     1      -5.001  -3.712   0.000  0.00  0.00    +0.000 A 
ATOM     37  C   UNL     1      -4.287  -4.125   0.000  0.00  0.00    +0.000 A 
ENDBRANCH  30  31
ENDBRANCH  24  25
ENDBRANCH   4  24
TORSDOF 5
