REMARK  Name = 
REMARK  7 active torsions:
REMARK  status: ('A' for Active; 'I' for Inactive)
REMARK    1  A    between atoms: C_1  and  C_2
REMARK    2  A    between atoms: C_1  and  C_3
REMARK    3  A    between atoms: C_2  and  C_5
REMARK    4  A    between atoms: C_3  and  O_6
REMARK    5  A    between atoms: C_5  and  C_8
REMARK    6  A    between atoms: C_8  and  N_10
REMARK    7  A    between atoms: N_12  and  N_14
REMARK                            x       y       z     vdW  Elec       q    Type
REMARK                         _______ _______ _______ _____ _____    ______ ____
ROOT
ATOM      1  C   UNL     1       0.358  -0.210   0.000  0.00  0.00    +0.000 C 
ENDROOT
BRANCH   1   2
ATOM      2  C   UNL     1      -0.358   0.196   0.000  0.00  0.00    +0.000 C 
BRANCH   2   3
ATOM      3  N   UNL     1      -1.071  -0.213   0.000  0.00  0.00    +0.000 NA
ATOM      4  C   UNL     1      -1.787   0.193   0.000  0.00  0.00    +0.000 C 
ATOM      5  N   UNL     1      -2.503  -0.217   0.000  0.00  0.00    +0.000 NA
ATOM      6  N   UNL     1      -1.790   1.022   0.000  0.00  0.00    +0.000 NA
BRANCH   5   7
ATOM      7  N   UNL     1      -3.215   0.196   0.000  0.00  0.00    +0.000 N 
ATOM      8  O   UNL     1      -3.931  -0.210   0.000  0.00  0.00    +0.000 OA
ATOM      9  O   UNL     1      -3.212   1.022   0.000  0.00  0.00    +0.000 OA
ENDBRANCH   5   7
ENDBRANCH   2   3
ENDBRANCH   1   2
BRANCH   1  10
ATOM     10  C   UNL     1       1.067   0.203   0.000  0.00  0.00    +0.000 C 
BRANCH  10  11
ATOM     11  C   UNL     1       1.787  -0.206   0.000  0.00  0.00    +0.000 C 
ATOM     12  N   UNL     1       1.790  -1.033   0.000  0.00  0.00    +0.000 NA
BRANCH  11  13
ATOM     13  C   UNL     1       2.503   0.206   0.000  0.00  0.00    +0.000 C 
ATOM     14  O   UNL     1       2.499   1.033   0.000  0.00  0.00    +0.000 OA
BRANCH  13  15
ATOM     15  O   UNL     1       3.215  -0.203   0.000  0.00  0.00    +0.000 OA
ATOM     16  C   UNL     1       3.931   0.213   0.000  0.00  0.00    +0.000 C 
ENDBRANCH  13  15
ENDBRANCH  11  13
ENDBRANCH  10  11
ENDBRANCH   1  10
TORSDOF 7
