REMARK  Name = 
REMARK  5 active torsions:
REMARK  status: ('A' for Active; 'I' for Inactive)
REMARK    1  A    between atoms: C_12  and  O_20
REMARK    2  A    between atoms: C_17  and  C_18
REMARK    3  A    between atoms: C_18  and  O_21
REMARK    4  A    between atoms: O_21  and  C_22
REMARK    5  A    between atoms: C_22  and  C_24
REMARK                            x       y       z     vdW  Elec       q    Type
REMARK                         _______ _______ _______ _____ _____    ______ ____
ROOT
ATOM      1  C   UNL     1      -2.143  -1.565   0.000  0.00  0.00    +0.000 A 
ATOM      2  C   UNL     1      -2.143  -0.740   0.000  0.00  0.00    +0.000 A 
ATOM      3  C   UNL     1      -2.858  -1.977   0.000  0.00  0.00    +0.000 A 
ATOM      4  C   UNL     1      -2.858  -0.327   0.000  0.00  0.00    +0.000 A 
ATOM      5  C   UNL     1      -0.715  -1.565   0.000  0.00  0.00    +0.000 C 
ATOM      6  C   UNL     1      -3.572  -1.565   0.000  0.00  0.00    +0.000 A 
ATOM      7  C   UNL     1      -1.429   0.498   0.000  0.00  0.00    +0.000 C 
ATOM      8  C   UNL     1      -3.572  -0.740   0.000  0.00  0.00    +0.000 A 
ATOM      9  C   UNL     1       0.000   0.498   0.000  0.00  0.00    +0.000 C 
ATOM     10  C   UNL     1      -0.715  -0.740   0.000  0.00  0.00    +0.000 C 
ATOM     11  C   UNL     1      -1.429  -0.327   0.000  0.00  0.00    +0.000 C 
ATOM     12  C   UNL     1      -1.429  -1.977   0.000  0.00  0.00    +0.000 A 
ATOM     13  C   UNL     1      -1.429  -2.802   0.000  0.00  0.00    +0.000 A 
ATOM     14  N   UNL     1       0.000  -0.327   0.000  0.00  0.00    +0.000 NA
ATOM     15  C   UNL     1       0.714  -0.740   0.000  0.00  0.00    +0.000 C 
ATOM     16  C   UNL     1      -0.715   0.910   0.000  0.00  0.00    +0.000 C 
ATOM     17  N   UNL     1      -2.858  -2.802   0.000  0.00  0.00    +0.000 N 
ATOM     18  C   UNL     1      -3.441  -3.385   0.000  0.00  0.00    +0.000 C 
ENDROOT
BRANCH  11  20
ATOM     19  C   UNL     1      -2.143   0.910   0.000  0.00  0.00    +0.000 C 
ATOM     20  O   UNL     1      -2.143   0.085   0.000  0.00  0.00    +0.000 OA
ENDBRANCH  11  20
BRANCH  16  21
ATOM     21  C   UNL     1      -0.715   1.735   0.000  0.00  0.00    +0.000 C 
BRANCH  21  22
ATOM     22  O   UNL     1       0.000   2.148   0.000  0.00  0.00    +0.000 OA
BRANCH  22  23
ATOM     23  C   UNL     1       0.714   1.735   0.000  0.00  0.00    +0.000 C 
ATOM     24  O   UNL     1       0.714   0.910   0.000  0.00  0.00    +0.000 OA
BRANCH  23  25
ATOM     25  C   UNL     1       1.429   2.148   0.000  0.00  0.00    +0.000 A 
ATOM     26  C   UNL     1       2.143   1.735   0.000  0.00  0.00    +0.000 A 
ATOM     27  C   UNL     1       1.429   2.973   0.000  0.00  0.00    +0.000 A 
ATOM     28  N   UNL     1       2.143   3.385   0.000  0.00  0.00    +0.000 NA
ATOM     29  C   UNL     1       2.858   2.973   0.000  0.00  0.00    +0.000 A 
ATOM     30  C   UNL     1       2.858   2.148   0.000  0.00  0.00    +0.000 A 
ATOM     31 BR   UNL     1       3.572   1.735   0.000  0.00  0.00    +0.000 Br
ENDBRANCH  23  25
ENDBRANCH  22  23
ENDBRANCH  21  22
ENDBRANCH  16  21
TORSDOF 5
