REMARK  Name = 
REMARK  7 active torsions:
REMARK  status: ('A' for Active; 'I' for Inactive)
REMARK    1  A    between atoms: C_2  and  C_3
REMARK    2  A    between atoms: C_3  and  C_4
REMARK    3  A    between atoms: C_4  and  C_5
REMARK    4  A    between atoms: C_4  and  C_8
REMARK    5  A    between atoms: C_5  and  C_6
REMARK    6  A    between atoms: N_14  and  C_18
REMARK    7  A    between atoms: C_21  and  C_23
REMARK                            x       y       z     vdW  Elec       q    Type
REMARK                         _______ _______ _______ _____ _____    ______ ____
ROOT
ATOM      1  C   UNL     1       2.777  -4.427   0.000  0.00  0.00    +0.000 C 
ATOM      2  O   UNL     1       3.189  -5.141   0.000  0.00  0.00    +0.000 OA
ATOM      3  N   UNL     1       3.189  -3.712   0.000  0.00  0.00    +0.000 NA
ATOM      4  C   UNL     1       4.014  -3.712   0.000  0.00  0.00    +0.000 A 
ATOM      5  C   UNL     1       4.427  -2.998   0.000  0.00  0.00    +0.000 A 
ATOM      6  C   UNL     1       5.252  -2.998   0.000  0.00  0.00    +0.000 A 
ATOM      7  N   UNL     1       5.665  -3.712   0.000  0.00  0.00    +0.000 N 
ATOM      8  C   UNL     1       5.252  -4.427   0.000  0.00  0.00    +0.000 A 
ATOM      9  O   UNL     1       5.665  -5.141   0.000  0.00  0.00    +0.000 OA
ATOM     10  N   UNL     1       4.427  -4.427   0.000  0.00  0.00    +0.000 NA
ENDROOT
BRANCH   7  11
ATOM     11  C   UNL     1       6.489  -3.712   0.000  0.00  0.00    +0.000 C 
ATOM     12  C   UNL     1       6.974  -3.045   0.000  0.00  0.00    +0.000 C 
ATOM     13  C   UNL     1       7.759  -3.300   0.000  0.00  0.00    +0.000 C 
ATOM     14  C   UNL     1       7.759  -4.125   0.000  0.00  0.00    +0.000 C 
ATOM     15  O   UNL     1       6.974  -4.380   0.000  0.00  0.00    +0.000 OA
ATOM     16  O   UNL     1       8.427  -2.815   0.000  0.00  0.00    +0.000 OA
ATOM     17  F   UNL     1       6.367  -2.487   0.000  0.00  0.00    +0.000 F 
ATOM     18  F   UNL     1       7.138  -2.236   0.000  0.00  0.00    +0.000 F 
BRANCH  14  19
ATOM     19  C   UNL     1       8.427  -4.610   0.000  0.00  0.00    +0.000 C 
ATOM     20  O   UNL     1       9.180  -4.274   0.000  0.00  0.00    +0.000 OA
ENDBRANCH  14  19
ENDBRANCH   7  11
BRANCH   1  21
ATOM     21  C   UNL     1       1.952  -4.427   0.000  0.00  0.00    +0.000 C 
BRANCH  21  22
ATOM     22  C   UNL     1       1.540  -3.712   0.000  0.00  0.00    +0.000 C 
BRANCH  22  23
ATOM     23  C   UNL     1       0.715  -3.712   0.000  0.00  0.00    +0.000 C 
ATOM     24  C   UNL     1       0.302  -2.998   0.000  0.00  0.00    +0.000 C 
ENDBRANCH  22  23
ENDBRANCH  21  22
BRANCH  21  25
ATOM     25  C   UNL     1       1.540  -5.141   0.000  0.00  0.00    +0.000 C 
BRANCH  25  27
ATOM     26  C   UNL     1       0.302  -5.856   0.000  0.00  0.00    +0.000 C 
ATOM     27  C   UNL     1       0.715  -5.141   0.000  0.00  0.00    +0.000 C 
ENDBRANCH  25  27
ENDBRANCH  21  25
ENDBRANCH   1  21
TORSDOF 7
