REMARK  Name = 
REMARK  8 active torsions:
REMARK  status: ('A' for Active; 'I' for Inactive)
REMARK    1  A    between atoms: O_1  and  C_4
REMARK    2  A    between atoms: O_1  and  C_8
REMARK    3  A    between atoms: C_3  and  C_4
REMARK    4  A    between atoms: C_7  and  C_8
REMARK    5  A    between atoms: C_7  and  C_12
REMARK    6  A    between atoms: C_7  and  C_13
REMARK    7  A    between atoms: C_12  and  C_14
REMARK    8  A    between atoms: C_14  and  C_16
REMARK                            x       y       z     vdW  Elec       q    Type
REMARK                         _______ _______ _______ _____ _____    ______ ____
ROOT
ATOM      1  O   UNL     1      -0.717   0.000   0.000  0.00  0.00    +0.000 OA
ENDROOT
BRANCH   1   3
ATOM      2  O   UNL     1      -1.426   1.240   0.000  0.00  0.00    +0.000 OA
ATOM      3  C   UNL     1      -1.426   0.408   0.000  0.00  0.00    +0.000 C 
BRANCH   3   4
ATOM      4  C   UNL     1      -2.157   0.000   0.000  0.00  0.00    +0.000 A 
ATOM      5  C   UNL     1      -2.867   0.408   0.000  0.00  0.00    +0.000 A 
ATOM      6  C   UNL     1      -2.157  -0.831   0.000  0.00  0.00    +0.000 A 
ATOM      7  C   UNL     1      -3.584   0.000   0.000  0.00  0.00    +0.000 A 
ATOM      8  C   UNL     1      -2.867  -1.240   0.000  0.00  0.00    +0.000 A 
ATOM      9  C   UNL     1      -3.584  -0.831   0.000  0.00  0.00    +0.000 A 
ENDBRANCH   3   4
ENDBRANCH   1   3
BRANCH   1  10
ATOM     10  C   UNL     1       0.000   0.408   0.000  0.00  0.00    +0.000 C 
BRANCH  10  11
ATOM     11  C   UNL     1       0.717   0.000   0.000  0.00  0.00    +0.000 C 
BRANCH  11  12
ATOM     12  C   UNL     1       0.717  -0.831   0.000  0.00  0.00    +0.000 C 
ATOM     13  C   UNL     1       1.426  -1.240   0.000  0.00  0.00    +0.000 C 
ENDBRANCH  11  12
BRANCH  11  14
ATOM     14  C   UNL     1       1.426   0.408   0.000  0.00  0.00    +0.000 C 
BRANCH  14  15
ATOM     15  C   UNL     1       2.157   0.000   0.000  0.00  0.00    +0.000 C 
BRANCH  15  16
ATOM     16  C   UNL     1       2.867   0.408   0.000  0.00  0.00    +0.000 C 
ATOM     17  C   UNL     1       3.584   0.000   0.000  0.00  0.00    +0.000 C 
ENDBRANCH  15  16
ENDBRANCH  14  15
ENDBRANCH  11  14
ENDBRANCH  10  11
ENDBRANCH   1  10
TORSDOF 8
