REMARK  Name = 
REMARK  9 active torsions:
REMARK  status: ('A' for Active; 'I' for Inactive)
REMARK    1  A    between atoms: C_1  and  N_31
REMARK    2  A    between atoms: C_7  and  C_8
REMARK    3  A    between atoms: C_8  and  O_9
REMARK    4  A    between atoms: O_9  and  P_11
REMARK    5  A    between atoms: P_11  and  O_13
REMARK    6  A    between atoms: O_13  and  P_15
REMARK    7  A    between atoms: P_15  and  O_17
REMARK    8  A    between atoms: O_17  and  C_18
REMARK    9  A    between atoms: C_26  and  C_28
REMARK                            x       y       z     vdW  Elec       q    Type
REMARK                         _______ _______ _______ _____ _____    ______ ____
ROOT
ATOM      1  O   UNL     1       1.571  -0.421   0.000  0.00  0.00    +0.000 OA
ENDROOT
BRANCH   1   3
ATOM      2  O   UNL     1       0.746   0.404   0.000  0.00  0.00    +0.000 OA
ATOM      3  P   UNL     1       0.746  -0.421   0.000  0.00  0.00    +0.000 P 
ATOM      4  O   UNL     1       0.746  -1.246   0.000  0.00  0.00    +0.000 OA
BRANCH   3   5
ATOM      5  O   UNL     1      -0.079  -0.421   0.000  0.00  0.00    +0.000 OA
BRANCH   5   7
ATOM      6  O   UNL     1      -0.904   0.404   0.000  0.00  0.00    +0.000 OA
ATOM      7  P   UNL     1      -0.904  -0.421   0.000  0.00  0.00    +0.000 P 
ATOM      8  O   UNL     1      -0.873  -1.246   0.000  0.00  0.00    +0.000 OA
BRANCH   7   9
ATOM      9  O   UNL     1      -1.730  -0.421   0.000  0.00  0.00    +0.000 OA
BRANCH   9  10
ATOM     10  C   UNL     1      -2.444  -0.834   0.000  0.00  0.00    +0.000 C 
ATOM     11  O   UNL     1      -3.158  -0.421   0.000  0.00  0.00    +0.000 OA
ATOM     12  C   UNL     1      -2.444  -1.659   0.000  0.00  0.00    +0.000 C 
ATOM     13  O   UNL     1      -1.730  -2.071   0.000  0.00  0.00    +0.000 OA
ATOM     14  C   UNL     1      -3.158  -2.071   0.000  0.00  0.00    +0.000 C 
ATOM     15  O   UNL     1      -3.158  -2.896   0.000  0.00  0.00    +0.000 OA
ATOM     16  C   UNL     1      -3.873  -1.659   0.000  0.00  0.00    +0.000 C 
ATOM     17  O   UNL     1      -4.587  -2.071   0.000  0.00  0.00    +0.000 OA
ATOM     18  C   UNL     1      -3.873  -0.834   0.000  0.00  0.00    +0.000 C 
BRANCH  18  20
ATOM     19  O   UNL     1      -4.587   0.404   0.000  0.00  0.00    +0.000 OA
ATOM     20  C   UNL     1      -4.587  -0.421   0.000  0.00  0.00    +0.000 C 
ATOM     21  O   UNL     1      -5.302  -0.834   0.000  0.00  0.00    +0.000 OA
ENDBRANCH  18  20
ENDBRANCH   9  10
ENDBRANCH   7   9
ENDBRANCH   5   7
ENDBRANCH   3   5
ENDBRANCH   1   3
BRANCH   1  22
ATOM     22  C   UNL     1       2.396  -0.421   0.000  0.00  0.00    +0.000 C 
BRANCH  22  29
ATOM     23  C   UNL     1       4.445  -0.834   0.000  0.00  0.00    +0.000 C 
ATOM     24  O   UNL     1       3.777  -0.348   0.000  0.00  0.00    +0.000 OA
ATOM     25  C   UNL     1       4.190  -1.618   0.000  0.00  0.00    +0.000 C 
ATOM     26  C   UNL     1       3.365  -1.618   0.000  0.00  0.00    +0.000 C 
ATOM     27  O   UNL     1       4.603  -2.333   0.000  0.00  0.00    +0.000 OA
ATOM     28  O   UNL     1       2.952  -2.333   0.000  0.00  0.00    +0.000 OA
ATOM     29  C   UNL     1       3.110  -0.834   0.000  0.00  0.00    +0.000 C 
BRANCH  23  31
ATOM     30  C   UNL     1       5.302   1.246   0.000  0.00  0.00    +0.000 A 
ATOM     31  N   UNL     1       4.817   0.578   0.000  0.00  0.00    +0.000 N 
ATOM     32  C   UNL     1       4.032   0.833   0.000  0.00  0.00    +0.000 A 
ATOM     33  C   UNL     1       4.032   1.659   0.000  0.00  0.00    +0.000 A 
ATOM     34  C   UNL     1       2.603   0.833   0.000  0.00  0.00    +0.000 A 
ATOM     35  N   UNL     1       1.889   0.421   0.000  0.00  0.00    +0.000 NA
ATOM     36  C   UNL     1       3.318   2.071   0.000  0.00  0.00    +0.000 A 
ATOM     37  O   UNL     1       3.318   2.896   0.000  0.00  0.00    +0.000 OA
ATOM     38  N   UNL     1       2.603   1.659   0.000  0.00  0.00    +0.000 NA
ATOM     39  N   UNL     1       3.318   0.421   0.000  0.00  0.00    +0.000 NA
ATOM     40  N   UNL     1       4.817   1.913   0.000  0.00  0.00    +0.000 NA
ENDBRANCH  23  31
ENDBRANCH  22  29
ENDBRANCH   1  22
TORSDOF 9
