REMARK  Name = 
REMARK  7 active torsions:
REMARK  status: ('A' for Active; 'I' for Inactive)
REMARK    1  A    between atoms: C_9  and  O_12
REMARK    2  A    between atoms: O_12  and  C_13
REMARK    3  A    between atoms: C_13  and  C_14
REMARK    4  A    between atoms: C_14  and  C_15
REMARK    5  A    between atoms: C_15  and  N_16
REMARK    6  A    between atoms: N_19  and  C_20
REMARK    7  A    between atoms: N_19  and  C_27
REMARK                            x       y       z     vdW  Elec       q    Type
REMARK                         _______ _______ _______ _____ _____    ______ ____
ROOT
ATOM      1  C   UNL     1       2.858   1.650   0.000  0.00  0.00    +0.000 C 
ENDROOT
BRANCH   1   2
ATOM      2  N   UNL     1       3.572   2.062   0.000  0.00  0.00    +0.000 NA
ATOM      3  C   UNL     1       4.287   1.650   0.000  0.00  0.00    +0.000 C 
ATOM      4  O   UNL     1       4.287   0.825   0.000  0.00  0.00    +0.000 OA
ATOM      5  N   UNL     1       5.001   2.062   0.000  0.00  0.00    +0.000 N 
BRANCH   5   6
ATOM      6  C   UNL     1       5.716   1.650   0.000  0.00  0.00    +0.000 C 
ATOM      7  C   UNL     1       6.430   2.062   0.000  0.00  0.00    +0.000 C 
ATOM      8  C   UNL     1       7.145   1.650   0.000  0.00  0.00    +0.000 C 
ATOM      9  C   UNL     1       7.145   0.825   0.000  0.00  0.00    +0.000 C 
ATOM     10  C   UNL     1       6.430   0.412   0.000  0.00  0.00    +0.000 C 
ATOM     11  C   UNL     1       5.716   0.825   0.000  0.00  0.00    +0.000 C 
ATOM     12  O   UNL     1       5.001   0.412   0.000  0.00  0.00    +0.000 OA
ENDBRANCH   5   6
BRANCH   5  13
ATOM     13  C   UNL     1       5.001   2.888   0.000  0.00  0.00    +0.000 C 
ATOM     14  C   UNL     1       4.589   3.602   0.000  0.00  0.00    +0.000 C 
ATOM     15  C   UNL     1       5.414   3.602   0.000  0.00  0.00    +0.000 C 
ENDBRANCH   5  13
ENDBRANCH   1   2
BRANCH   1  16
ATOM     16  C   UNL     1       2.143   2.062   0.000  0.00  0.00    +0.000 C 
BRANCH  16  17
ATOM     17  C   UNL     1       1.429   1.650   0.000  0.00  0.00    +0.000 C 
BRANCH  17  18
ATOM     18  O   UNL     1       0.715   2.062   0.000  0.00  0.00    +0.000 OA
BRANCH  18  27
ATOM     19  C   UNL     1      -2.143   2.062   0.000  0.00  0.00    +0.000 A 
ATOM     20  C   UNL     1      -2.858   1.650   0.000  0.00  0.00    +0.000 A 
ATOM     21  C   UNL     1      -2.858   0.825   0.000  0.00  0.00    +0.000 A 
ATOM     22  O   UNL     1      -3.572   0.412   0.000  0.00  0.00    +0.000 OA
ATOM     23  N   UNL     1      -2.143   0.412   0.000  0.00  0.00    +0.000 NA
ATOM     24  C   UNL     1      -1.429   0.825   0.000  0.00  0.00    +0.000 A 
ATOM     25  C   UNL     1      -1.429   1.650   0.000  0.00  0.00    +0.000 A 
ATOM     26  C   UNL     1      -0.715   2.062   0.000  0.00  0.00    +0.000 A 
ATOM     27  C   UNL     1       0.000   1.650   0.000  0.00  0.00    +0.000 A 
ATOM     28  C   UNL     1       0.000   0.825   0.000  0.00  0.00    +0.000 A 
ATOM     29  C   UNL     1      -0.715   0.412   0.000  0.00  0.00    +0.000 A 
ENDBRANCH  18  27
ENDBRANCH  17  18
ENDBRANCH  16  17
ENDBRANCH   1  16
TORSDOF 7
