REMARK  Name = 
REMARK  4 active torsions:
REMARK  status: ('A' for Active; 'I' for Inactive)
REMARK    1  A    between atoms: C_2  and  C_3
REMARK    2  A    between atoms: C_10  and  C_15
REMARK    3  A    between atoms: N_17  and  C_18
REMARK    4  A    between atoms: N_17  and  C_20
REMARK                            x       y       z     vdW  Elec       q    Type
REMARK                         _______ _______ _______ _____ _____    ______ ____
ROOT
ATOM      1  C   UNL     1       0.000   0.000   0.000  0.00  0.00    +0.000 A 
ATOM      2  C   UNL     1      -0.715  -0.412   0.000  0.00  0.00    +0.000 A 
ATOM      3  C   UNL     1      -0.715  -1.238   0.000  0.00  0.00    +0.000 A 
ATOM      4  C   UNL     1       0.000  -1.650   0.000  0.00  0.00    +0.000 A 
ATOM      5  C   UNL     1       0.715  -1.238   0.000  0.00  0.00    +0.000 A 
ATOM      6  C   UNL     1       0.715  -0.412   0.000  0.00  0.00    +0.000 A 
ATOM      7  C   UNL     1       1.429   0.000   0.000  0.00  0.00    +0.000 A 
ATOM      8  C   UNL     1       2.143  -0.412   0.000  0.00  0.00    +0.000 A 
ATOM      9  C   UNL     1       2.143  -1.238   0.000  0.00  0.00    +0.000 A 
ATOM     10  O   UNL     1       2.858  -1.650   0.000  0.00  0.00    +0.000 OA
ATOM     11  N   UNL     1       1.429  -1.650   0.000  0.00  0.00    +0.000 N 
ATOM     12  C   UNL     1       1.429  -2.475   0.000  0.00  0.00    +0.000 C 
ATOM     13  O   UNL     1       1.429   0.825   0.000  0.00  0.00    +0.000 OA
ENDROOT
BRANCH   8  14
ATOM     14  C   UNL     1       2.858   0.000   0.000  0.00  0.00    +0.000 C 
ATOM     15  O   UNL     1       3.572  -0.412   0.000  0.00  0.00    +0.000 OA
ATOM     16  N   UNL     1       2.858   0.825   0.000  0.00  0.00    +0.000 N 
BRANCH  16  17
ATOM     17  C   UNL     1       3.572   1.238   0.000  0.00  0.00    +0.000 A 
ATOM     18  C   UNL     1       3.572   2.062   0.000  0.00  0.00    +0.000 A 
ATOM     19  C   UNL     1       4.287   2.475   0.000  0.00  0.00    +0.000 A 
ATOM     20  C   UNL     1       5.001   2.062   0.000  0.00  0.00    +0.000 A 
ATOM     21  C   UNL     1       5.001   1.238   0.000  0.00  0.00    +0.000 A 
ATOM     22  C   UNL     1       4.287   0.825   0.000  0.00  0.00    +0.000 A 
ENDBRANCH  16  17
BRANCH  16  23
ATOM     23  C   UNL     1       2.143   1.238   0.000  0.00  0.00    +0.000 C 
ATOM     24  C   UNL     1       2.143   2.062   0.000  0.00  0.00    +0.000 C 
ENDBRANCH  16  23
ENDBRANCH   8  14
BRANCH   1  26
ATOM     25  C   UNL     1      -0.715   1.238   0.000  0.00  0.00    +0.000 C 
ATOM     26  C   UNL     1       0.000   0.825   0.000  0.00  0.00    +0.000 C 
ENDBRANCH   1  26
TORSDOF 4
