REMARK  Name = 
REMARK  8 active torsions:
REMARK  status: ('A' for Active; 'I' for Inactive)
REMARK    1  A    between atoms: C_2  and  C_3
REMARK    2  A    between atoms: C_2  and  C_9
REMARK    3  A    between atoms: C_2  and  N_29
REMARK    4  A    between atoms: C_9  and  O_11
REMARK    5  A    between atoms: O_11  and  C_12
REMARK    6  A    between atoms: N_14  and  C_20
REMARK    7  A    between atoms: C_20  and  C_21
REMARK    8  A    between atoms: C_21  and  C_22
REMARK                            x       y       z     vdW  Elec       q    Type
REMARK                         _______ _______ _______ _____ _____    ______ ____
ROOT
ATOM      1  O   UNL     1      -0.715  -0.412   0.000  0.00  0.00    +0.000 OA
ENDROOT
BRANCH   1   2
ATOM      2  C   UNL     1       0.000   0.000   0.000  0.00  0.00    +0.000 C 
ATOM      3  C   UNL     1       0.000   0.825   0.000  0.00  0.00    +0.000 C 
ATOM      4  N   UNL     1       0.715   1.238   0.000  0.00  0.00    +0.000 N 
ATOM      5  C   UNL     1       1.429   0.825   0.000  0.00  0.00    +0.000 C 
ATOM      6  C   UNL     1       1.429   0.000   0.000  0.00  0.00    +0.000 C 
ATOM      7  C   UNL     1       0.715  -0.412   0.000  0.00  0.00    +0.000 C 
ATOM      8  C   UNL     1       0.852   0.138   0.000  0.00  0.00    +0.000 C 
ATOM      9  C   UNL     1       0.852   0.688   0.000  0.00  0.00    +0.000 C 
BRANCH   4  10
ATOM     10  C   UNL     1       0.715   2.062   0.000  0.00  0.00    +0.000 C 
BRANCH  10  11
ATOM     11  C   UNL     1       0.000   2.475   0.000  0.00  0.00    +0.000 C 
BRANCH  11  12
ATOM     12  C   UNL     1       0.000   3.300   0.000  0.00  0.00    +0.000 A 
ATOM     13  C   UNL     1      -0.715   3.712   0.000  0.00  0.00    +0.000 A 
ATOM     14  C   UNL     1      -0.715   4.537   0.000  0.00  0.00    +0.000 A 
ATOM     15  C   UNL     1       0.000   4.950   0.000  0.00  0.00    +0.000 A 
ATOM     16  C   UNL     1       0.715   4.537   0.000  0.00  0.00    +0.000 A 
ATOM     17  C   UNL     1       0.715   3.712   0.000  0.00  0.00    +0.000 A 
ATOM     18  F   UNL     1       0.000   5.775   0.000  0.00  0.00    +0.000 F 
ENDBRANCH  11  12
ENDBRANCH  10  11
ENDBRANCH   4  10
ENDBRANCH   1   2
BRANCH   1  19
ATOM     19  C   UNL     1      -0.715  -1.238   0.000  0.00  0.00    +0.000 C 
ATOM     20  O   UNL     1       0.000  -1.650   0.000  0.00  0.00    +0.000 OA
BRANCH  19  22
ATOM     21  C   UNL     1      -1.841  -0.935   0.000  0.00  0.00    +0.000 C 
ATOM     22  C   UNL     1      -1.429  -1.650   0.000  0.00  0.00    +0.000 C 
BRANCH  22  23
ATOM     23  N   UNL     1      -1.016  -2.365   0.000  0.00  0.00    +0.000 NA
ATOM     24  C   UNL     1      -0.191  -2.365   0.000  0.00  0.00    +0.000 C 
ATOM     25  C   UNL     1       0.221  -3.079   0.000  0.00  0.00    +0.000 C 
ATOM     26  C   UNL     1      -0.191  -3.793   0.000  0.00  0.00    +0.000 C 
ATOM     27  C   UNL     1      -1.016  -3.793   0.000  0.00  0.00    +0.000 C 
ATOM     28  C   UNL     1      -1.429  -3.079   0.000  0.00  0.00    +0.000 C 
ENDBRANCH  22  23
BRANCH  22  29
ATOM     29  C   UNL     1      -2.143  -2.062   0.000  0.00  0.00    +0.000 A 
ATOM     30  C   UNL     1      -2.143  -2.888   0.000  0.00  0.00    +0.000 A 
ATOM     31  C   UNL     1      -2.858  -3.300   0.000  0.00  0.00    +0.000 A 
ATOM     32  C   UNL     1      -3.572  -2.888   0.000  0.00  0.00    +0.000 A 
ATOM     33  C   UNL     1      -3.572  -2.062   0.000  0.00  0.00    +0.000 A 
ATOM     34  C   UNL     1      -2.858  -1.650   0.000  0.00  0.00    +0.000 A 
ENDBRANCH  22  29
ENDBRANCH  19  22
ENDBRANCH   1  19
TORSDOF 8
