REMARK  Name = 
REMARK  3 active torsions:
REMARK  status: ('A' for Active; 'I' for Inactive)
REMARK    1  A    between atoms: C_7  and  C_8
REMARK    2  A    between atoms: C_11  and  O_14
REMARK    3  A    between atoms: O_14  and  C_15
REMARK                            x       y       z     vdW  Elec       q    Type
REMARK                         _______ _______ _______ _____ _____    ______ ____
ROOT
ATOM      1  C   UNL     1       3.607   3.799   0.000  0.00  0.00    +0.000 C 
ATOM      2  N   UNL     1       3.575   2.975   0.000  0.00  0.00    +0.000 NA
ATOM      3  C   UNL     1       4.303   2.588   0.000  0.00  0.00    +0.000 C 
ATOM      4  C   UNL     1       4.455   1.777   0.000  0.00  0.00    +0.000 A 
ATOM      5  N   UNL     1       5.216   1.458   0.000  0.00  0.00    +0.000 NA
ATOM      6  N   UNL     1       5.147   0.635   0.000  0.00  0.00    +0.000 NA
ATOM      7  C   UNL     1       4.344   0.447   0.000  0.00  0.00    +0.000 A 
ATOM      8  N   UNL     1       3.916   1.153   0.000  0.00  0.00    +0.000 N 
ATOM      9  C   UNL     1       3.092   1.185   0.000  0.00  0.00    +0.000 A 
ATOM     10  C   UNL     1       2.761   0.430   0.000  0.00  0.00    +0.000 A 
ATOM     11  C   UNL     1       1.941   0.339   0.000  0.00  0.00    +0.000 A 
ATOM     12  C   UNL     1       1.452   1.003   0.000  0.00  0.00    +0.000 A 
ATOM     13 CL   UNL     1       0.632   0.912   0.000  0.00  0.00    +0.000 Cl
ATOM     14  C   UNL     1       1.783   1.759   0.000  0.00  0.00    +0.000 A 
ATOM     15  C   UNL     1       2.603   1.850   0.000  0.00  0.00    +0.000 A 
ATOM     16  C   UNL     1       2.818   2.646   0.000  0.00  0.00    +0.000 C 
ENDROOT
BRANCH   7  17
ATOM     17  C   UNL     1       4.024  -0.313   0.000  0.00  0.00    +0.000 C 
ATOM     18  C   UNL     1       4.522  -0.971   0.000  0.00  0.00    +0.000 C 
ATOM     19  C   UNL     1       4.203  -1.731   0.000  0.00  0.00    +0.000 C 
ATOM     20  C   UNL     1       3.384  -1.834   0.000  0.00  0.00    +0.000 C 
ATOM     21  C   UNL     1       2.885  -1.177   0.000  0.00  0.00    +0.000 C 
ATOM     22  C   UNL     1       3.205  -0.416   0.000  0.00  0.00    +0.000 C 
BRANCH  20  23
ATOM     23  O   UNL     1       3.064  -2.595   0.000  0.00  0.00    +0.000 OA
BRANCH  23  24
ATOM     24  C   UNL     1       2.246  -2.698   0.000  0.00  0.00    +0.000 A 
ATOM     25  N   UNL     1       1.926  -3.458   0.000  0.00  0.00    +0.000 NA
ATOM     26  C   UNL     1       1.108  -3.562   0.000  0.00  0.00    +0.000 A 
ATOM     27  C   UNL     1       0.609  -2.905   0.000  0.00  0.00    +0.000 A 
ATOM     28  C   UNL     1       0.929  -2.144   0.000  0.00  0.00    +0.000 A 
ATOM     29  C   UNL     1       1.747  -2.041   0.000  0.00  0.00    +0.000 A 
ENDBRANCH  23  24
ENDBRANCH  20  23
ENDBRANCH   7  17
TORSDOF 3
