REMARK  Name = 
REMARK  6 active torsions:
REMARK  status: ('A' for Active; 'I' for Inactive)
REMARK    1  A    between atoms: C_2  and  CA_6
REMARK    2  A    between atoms: NE_5  and  CD_9
REMARK    3  A    between atoms: CA_6  and  N_8
REMARK    4  A    between atoms: CA_6  and  CB_10
REMARK    5  A    between atoms: CD_9  and  CG_11
REMARK    6  A    between atoms: CB_10  and  CG_11
REMARK                            x       y       z     vdW  Elec       q    Type
REMARK                         _______ _______ _______ _____ _____    ______ ____
ROOT
ATOM      1  CA  ARG A   1       1.429   0.412   0.000  0.00  0.00    +0.000 C 
ENDROOT
BRANCH   1   2
ATOM      2  N   ARG A   1       1.429  -0.412   0.000  0.00  0.00    +0.000 NA
ATOM      3  C   UNK A   0       0.714  -0.825   0.000  0.00  0.00    +0.000 C 
ATOM      4  O   UNK A   0       0.714  -1.650   0.000  0.00  0.00    +0.000 OA
ATOM      5  C   UNK A   0       0.000  -0.412   0.000  0.00  0.00    +0.000 C 
ENDBRANCH   1   2
BRANCH   1   6
ATOM      6  C   ARG A   1       2.143   0.825   0.000  0.00  0.00    +0.000 C 
ATOM      7  O   ARG A   1       2.143   1.650   0.000  0.00  0.00    +0.000 OA
ATOM      8  OXT ARG A   1       2.858   0.412   0.000  0.00  0.00    +0.000 OA
ENDBRANCH   1   6
BRANCH   1   9
ATOM      9  CB  ARG A   1       0.714   0.825   0.000  0.00  0.00    +0.000 C 
BRANCH   9  10
ATOM     10  CG  ARG A   1       0.000   0.412   0.000  0.00  0.00    +0.000 C 
BRANCH  10  11
ATOM     11  CD  ARG A   1      -0.714   0.825   0.000  0.00  0.00    +0.000 C 
BRANCH  11  14
ATOM     12  CZ  ARG A   1      -2.143   0.825   0.000  0.00  0.00    +0.000 C 
ATOM     13  NH1 ARG A   1      -2.858   0.412   0.000  0.00  0.00    +0.000 NA
ATOM     14  NE  ARG A   1      -1.429   0.412   0.000  0.00  0.00    +0.000 NA
ATOM     15  NH2 ARG A   1      -2.143   1.650   0.000  0.00  0.00    +0.000 NA
ENDBRANCH  11  14
ENDBRANCH  10  11
ENDBRANCH   9  10
ENDBRANCH   1   9
TORSDOF 6
