REMARK  Name = 
REMARK  2 active torsions:
REMARK  status: ('A' for Active; 'I' for Inactive)
REMARK    1  A    between atoms: C_7  and  C_16
REMARK    2  A    between atoms: C_16  and  C_27
REMARK                            x       y       z     vdW  Elec       q    Type
REMARK                         _______ _______ _______ _____ _____    ______ ____
ROOT
ATOM      1  C   UNL     1      -0.998  -0.754   0.000  0.00  0.00    +0.000 C 
ATOM      2  C   UNL     1       1.159   0.471   0.000  0.00  0.00    +0.000 C 
ATOM      3  C   UNL     1      -0.251  -0.373   0.000  0.00  0.00    +0.000 C 
ATOM      4  C   UNL     1      -0.998  -1.579   0.000  0.00  0.00    +0.000 C 
ATOM      5  C   UNL     1       1.159  -0.359   0.000  0.00  0.00    +0.000 C 
ATOM      6  C   UNL     1       0.452  -0.774   0.000  0.00  0.00    +0.000 C 
ATOM      7  C   UNL     1       1.916   0.720   0.000  0.00  0.00    +0.000 C 
ATOM      8  C   UNL     1      -0.266   0.476   0.000  0.00  0.00    +0.000 C 
ATOM      9  C   UNL     1      -1.726  -0.329   0.000  0.00  0.00    +0.000 C 
ATOM     10  C   UNL     1       0.452   0.871   0.000  0.00  0.00    +0.000 C 
ATOM     11  C   UNL     1       2.375   0.046   0.000  0.00  0.00    +0.000 C 
ATOM     12  C   UNL     1       1.931  -0.598   0.000  0.00  0.00    +0.000 C 
ATOM     13  C   UNL     1       0.452  -1.609   0.000  0.00  0.00    +0.000 C 
ATOM     14  C   UNL     1      -0.266  -2.014   0.000  0.00  0.00    +0.000 C 
ATOM     15  C   UNL     1      -1.740  -1.984   0.000  0.00  0.00    +0.000 C 
ATOM     16  C   UNL     1      -2.458  -0.754   0.000  0.00  0.00    +0.000 C 
ATOM     17  C   UNL     1      -2.458  -1.565   0.000  0.00  0.00    +0.000 C 
ATOM     18  F   UNL     1      -0.251  -1.194   0.000  0.00  0.00    +0.000 F 
ATOM     19  O   UNL     1      -3.195  -1.926   0.000  0.00  0.00    +0.000 OA
ATOM     20  O   UNL     1       2.634   1.130   0.000  0.00  0.00    +0.000 OA
ATOM     21  C   UNL     1      -0.998   0.119   0.000  0.00  0.00    +0.000 C 
ATOM     22  C   UNL     1       1.159   1.296   0.000  0.00  0.00    +0.000 C 
ATOM     23  O   UNL     1      -0.964   0.896   0.000  0.00  0.00    +0.000 OA
ATOM     24  F   UNL     1      -0.266  -2.863   0.000  0.00  0.00    +0.000 F 
ATOM     25  C   UNL     1       3.195   0.022   0.000  0.00  0.00    +0.000 C 
ENDROOT
BRANCH   7  26
ATOM     26  C   UNL     1       1.916   1.657   0.000  0.00  0.00    +0.000 C 
ATOM     27  O   UNL     1       1.281   2.014   0.000  0.00  0.00    +0.000 OA
BRANCH  26  28
ATOM     28  C   UNL     1       2.609   1.994   0.000  0.00  0.00    +0.000 C 
ATOM     29 CL   UNL     1       2.609   2.863   0.000  0.00  0.00    +0.000 Cl
ENDBRANCH  26  28
ENDBRANCH   7  26
TORSDOF 2
