REMARK  Name = 
REMARK  1 active torsions:
REMARK  status: ('A' for Active; 'I' for Inactive)
REMARK    1  A    between atoms: C_2  and  C_4
REMARK                            x       y       z     vdW  Elec       q    Type
REMARK                         _______ _______ _______ _____ _____    ______ ____
ROOT
ATOM      1  C   UNL     1       0.119  -1.031   0.000  0.00  0.00    +0.000 C 
ATOM      2  C   UNL     1       0.119  -0.206   0.000  0.00  0.00    +0.000 C 
ATOM      3  C   UNL     1       0.944  -0.206   0.000  0.00  0.00    +0.000 C 
ATOM      4  N   UNL     1      -0.706  -0.206   0.000  0.00  0.00    +0.000 NA
ENDROOT
BRANCH   2   5
ATOM      5  C   UNL     1       0.119   0.619   0.000  0.00  0.00    +0.000 C 
ATOM      6  O   UNL     1      -0.595   1.031   0.000  0.00  0.00    +0.000 OA
ENDBRANCH   2   5
TORSDOF 1
REMARK  Name = 
REMARK  1 active torsions:
REMARK  status: ('A' for Active; 'I' for Inactive)
REMARK    1  A    between atoms: C_2  and  C_4
REMARK                            x       y       z     vdW  Elec       q    Type
REMARK                         _______ _______ _______ _____ _____    ______ ____
ROOT
ATOM      1  C   UNL     1       4.814  -1.650   0.000  0.00  0.00    +0.000 C 
ATOM      2  N   UNL     1       4.814  -0.825   0.000  0.00  0.00    +0.000 N 
ATOM      3  C   UNL     1       4.099  -0.412   0.000  0.00  0.00    +0.000 A 
ATOM      4  C   UNL     1       4.099   0.412   0.000  0.00  0.00    +0.000 A 
ATOM      5  C   UNL     1       4.814   0.825   0.000  0.00  0.00    +0.000 A 
ATOM      6  O   UNL     1       4.814   1.650   0.000  0.00  0.00    +0.000 OA
ATOM      7  N   UNL     1       5.528   0.412   0.000  0.00  0.00    +0.000 N 
ATOM      8  C   UNL     1       5.528  -0.412   0.000  0.00  0.00    +0.000 A 
ATOM      9  O   UNL     1       6.243  -0.825   0.000  0.00  0.00    +0.000 OA
ATOM     10  C   UNL     1       6.243   0.825   0.000  0.00  0.00    +0.000 C 
ATOM     11  N   UNL     1       3.315   0.667   0.000  0.00  0.00    +0.000 NA
ATOM     12  C   UNL     1       2.830   0.000   0.000  0.00  0.00    +0.000 A 
ATOM     13  N   UNL     1       3.315  -0.667   0.000  0.00  0.00    +0.000 NA
ENDROOT
TORSDOF 0
