REMARK  Name = 
REMARK  23 active torsions:
REMARK  status: ('A' for Active; 'I' for Inactive)
REMARK    1  A    between atoms: O_5  and  C_40
REMARK    2  A    between atoms: O_5  and  C_47
REMARK    3  A    between atoms: N_11  and  CA_33
REMARK    4  A    between atoms: N_12  and  C_32
REMARK    5  A    between atoms: N_13  and  CA_39
REMARK    6  A    between atoms: N_14  and  CA_37
REMARK    7  A    between atoms: NE_15  and  CD_46
REMARK    8  A    between atoms: C_18  and  C_28
REMARK    9  A    between atoms: CG_19  and  CB_29
REMARK   10  A    between atoms: C_28  and  C_32
REMARK   11  A    between atoms: CB_29  and  CA_33
REMARK   12  A    between atoms: C_32  and  C_34
REMARK   13  A    between atoms: CA_33  and  C_35
REMARK   14  A    between atoms: C_34  and  C_38
REMARK   15  A    between atoms: C_36  and  CA_37
REMARK   16  A    between atoms: CA_37  and  CB_41
REMARK   17  A    between atoms: CA_39  and  C_42
REMARK   18  A    between atoms: CA_39  and  CB_43
REMARK   19  A    between atoms: CB_41  and  CG_44
REMARK   20  A    between atoms: CB_43  and  CG_45
REMARK   21  A    between atoms: CG_44  and  CD_48
REMARK   22  A    between atoms: CG_45  and  CD_46
REMARK   23  A    between atoms: C_47  and  C_49
REMARK                            x       y       z     vdW  Elec       q    Type
REMARK                         _______ _______ _______ _____ _____    ______ ____
ROOT
ATOM      1  CA  UNL     1      -1.041  -0.412   0.000  0.00  0.00    +0.000 C 
ENDROOT
BRANCH   1   3
ATOM      2  O   UNL     1      -1.041  -2.062   0.000  0.00  0.00    +0.000 OA
ATOM      3  N   UNL     1      -0.327  -0.825   0.000  0.00  0.00    +0.000 NA
ATOM      4  C   ACE A   0      -0.327  -1.650   0.000  0.00  0.00    +0.000 C 
BRANCH   4   6
ATOM      5  O   UNL     1       1.102  -1.650   0.000  0.00  0.00    +0.000 OA
ATOM      6  C   UNL     1       0.388  -2.062   0.000  0.00  0.00    +0.000 C 
BRANCH   6   7
ATOM      7  C   UNL     1       0.388  -2.888   0.000  0.00  0.00    +0.000 C 
BRANCH   7   9
ATOM      8  O   UNL     1       1.817  -2.062   0.000  0.00  0.00    +0.000 OA
ATOM      9  N   UNL     1       1.102  -3.300   0.000  0.00  0.00    +0.000 NA
ATOM     10  C   UNL     1       1.817  -2.888   0.000  0.00  0.00    +0.000 C 
BRANCH  10  11
ATOM     11  O   UNL     1       2.531  -3.300   0.000  0.00  0.00    +0.000 OA
BRANCH  11  12
ATOM     12  C   UNL     1       3.245  -2.888   0.000  0.00  0.00    +0.000 C 
BRANCH  12  13
ATOM     13  C   UNL     1       3.960  -3.300   0.000  0.00  0.00    +0.000 A 
ATOM     14  C   UNL     1       3.960  -4.125   0.000  0.00  0.00    +0.000 A 
ATOM     15  C   UNL     1       4.675  -2.888   0.000  0.00  0.00    +0.000 A 
ATOM     16  C   UNL     1       4.675  -4.537   0.000  0.00  0.00    +0.000 A 
ATOM     17  C   UNL     1       5.389  -3.300   0.000  0.00  0.00    +0.000 A 
ATOM     18  C   UNL     1       5.389  -4.125   0.000  0.00  0.00    +0.000 A 
ENDBRANCH  12  13
ENDBRANCH  11  12
ENDBRANCH  10  11
ENDBRANCH   7   9
BRANCH   7  19
ATOM     19  C   UNL     1      -0.327  -3.300   0.000  0.00  0.00    +0.000 C 
BRANCH  19  20
ATOM     20  C   UNL     1      -0.327  -4.125   0.000  0.00  0.00    +0.000 C 
ATOM     21  C   UNL     1      -1.041  -4.537   0.000  0.00  0.00    +0.000 C 
ATOM     22  C   UNL     1       0.388  -4.537   0.000  0.00  0.00    +0.000 C 
ATOM     23  C   UNL     1      -1.041  -5.363   0.000  0.00  0.00    +0.000 C 
ATOM     24  C   UNL     1       0.388  -5.363   0.000  0.00  0.00    +0.000 C 
ATOM     25  C   UNL     1      -0.327  -5.775   0.000  0.00  0.00    +0.000 C 
ENDBRANCH  19  20
ENDBRANCH   7  19
ENDBRANCH   6   7
ENDBRANCH   4   6
ENDBRANCH   1   3
BRANCH   1  28
ATOM     26  O   UNL     1      -0.327   0.825   0.000  0.00  0.00    +0.000 OA
ATOM     27  N   UNL     1      -1.756   0.825   0.000  0.00  0.00    +0.000 NA
ATOM     28  C   UNL     1      -1.041   0.412   0.000  0.00  0.00    +0.000 C 
BRANCH  27  29
ATOM     29  CA  UNL     1      -1.756   1.650   0.000  0.00  0.00    +0.000 C 
BRANCH  29  32
ATOM     30  O   UNL     1      -3.185   1.650   0.000  0.00  0.00    +0.000 OA
ATOM     31  N   UNL     1      -2.470   2.888   0.000  0.00  0.00    +0.000 NA
ATOM     32  C   UNL     1      -2.470   2.062   0.000  0.00  0.00    +0.000 C 
BRANCH  31  33
ATOM     33  CA  UNL     1      -3.185   3.300   0.000  0.00  0.00    +0.000 C 
BRANCH  33  36
ATOM     34  O   UNL     1      -4.614   3.300   0.000  0.00  0.00    +0.000 OA
ATOM     35  OXT UNL     1      -3.899   2.062   0.000  0.00  0.00    +0.000 OA
ATOM     36  C   UNL     1      -3.899   2.888   0.000  0.00  0.00    +0.000 C 
ENDBRANCH  33  36
BRANCH  33  37
ATOM     37  CB  UNL     1      -3.185   4.125   0.000  0.00  0.00    +0.000 C 
BRANCH  37  38
ATOM     38  CG  UNL     1      -3.899   4.537   0.000  0.00  0.00    +0.000 C 
ATOM     39  CD1 UNL     1      -4.614   4.125   0.000  0.00  0.00    +0.000 C 
ATOM     40  CD2 UNL     1      -3.899   5.363   0.000  0.00  0.00    +0.000 C 
ATOM     41  CE1 UNL     1      -5.328   4.537   0.000  0.00  0.00    +0.000 C 
ATOM     42  CE2 UNL     1      -4.614   5.775   0.000  0.00  0.00    +0.000 C 
ATOM     43  CZ  UNL     1      -5.328   5.363   0.000  0.00  0.00    +0.000 C 
ENDBRANCH  37  38
ENDBRANCH  33  37
ENDBRANCH  31  33
ENDBRANCH  29  32
BRANCH  29  44
ATOM     44  CB  UNL     1      -1.041   2.062   0.000  0.00  0.00    +0.000 C 
BRANCH  44  45
ATOM     45  CG  UNL     1      -1.041   2.888   0.000  0.00  0.00    +0.000 C 
BRANCH  45  48
ATOM     46  OE1 UNL     1      -0.327   4.125   0.000  0.00  0.00    +0.000 OA
ATOM     47  OE2 UNL     1       0.388   2.888   0.000  0.00  0.00    +0.000 OA
ATOM     48  CD  UNL     1      -0.327   3.300   0.000  0.00  0.00    +0.000 C 
ENDBRANCH  45  48
ENDBRANCH  44  45
ENDBRANCH  29  44
ENDBRANCH  27  29
ENDBRANCH   1  28
BRANCH   1  49
ATOM     49  CB  UNL     1      -1.756  -0.825   0.000  0.00  0.00    +0.000 C 
BRANCH  49  50
ATOM     50  CG  UNL     1      -2.470  -0.412   0.000  0.00  0.00    +0.000 C 
BRANCH  50  51
ATOM     51  CD  UNL     1      -3.185  -0.825   0.000  0.00  0.00    +0.000 C 
BRANCH  51  52
ATOM     52  NE  UNL     1      -3.899  -0.412   0.000  0.00  0.00    +0.000 NA
ATOM     53  NH1 UNL     1      -5.328  -0.412   0.000  0.00  0.00    +0.000 NA
ATOM     54  NH2 UNL     1      -4.614  -1.650   0.000  0.00  0.00    +0.000 NA
ATOM     55  CZ  UNL     1      -4.614  -0.825   0.000  0.00  0.00    +0.000 C 
ENDBRANCH  51  52
ENDBRANCH  50  51
ENDBRANCH  49  50
ENDBRANCH   1  49
TORSDOF 23
