REMARK  Name = 
REMARK  1 active torsions:
REMARK  status: ('A' for Active; 'I' for Inactive)
REMARK    1  A    between atoms: C_1  and  C_2
REMARK                            x       y       z     vdW  Elec       q    Type
REMARK                         _______ _______ _______ _____ _____    ______ ____
ROOT
ATOM      1  C   UNL     1      -0.007  -0.402   0.000  0.00  0.00    +0.000 C 
ATOM      2  C   UNL     1      -0.718   0.017   0.000  0.00  0.00    +0.000 C 
ATOM      3  C   UNL     1       0.718   0.000   0.000  0.00  0.00    +0.000 C 
ATOM      4  C   UNL     1      -0.718   0.817   0.000  0.00  0.00    +0.000 C 
ATOM      5  C   UNL     1       0.718   0.834   0.000  0.00  0.00    +0.000 C 
ATOM      6  C   UNL     1      -0.007   1.236   0.000  0.00  0.00    +0.000 C 
ATOM      7  C   UNL     1      -0.007   2.046   0.000  0.00  0.00    +0.000 C 
ENDROOT
BRANCH   1   8
ATOM      8  C   UNL     1      -0.007  -1.236   0.000  0.00  0.00    +0.000 C 
ATOM      9  C   UNL     1       0.828  -1.236   0.000  0.00  0.00    +0.000 C 
ATOM     10  C   UNL     1      -0.828  -1.236   0.000  0.00  0.00    +0.000 C 
ATOM     11  O   UNL     1      -0.007  -2.046   0.000  0.00  0.00    +0.000 OA
ENDBRANCH   1   8
TORSDOF 1
