REMARK  Name = 
REMARK  12 active torsions:
REMARK  status: ('A' for Active; 'I' for Inactive)
REMARK    1  A    between atoms: C_9  and  O_10
REMARK    2  A    between atoms: O_10  and  C_11
REMARK    3  A    between atoms: C_11  and  C_12
REMARK    4  A    between atoms: C_17  and  S_20
REMARK    5  A    between atoms: S_20  and  N_23
REMARK    6  A    between atoms: N_23  and  C_24
REMARK    7  A    between atoms: C_24  and  C_30
REMARK    8  A    between atoms: C_38  and  C_40
REMARK    9  A    between atoms: C_40  and  C_42
REMARK   10  A    between atoms: C_42  and  C_43
REMARK   11  A    between atoms: C_43  and  C_44
REMARK   12  A    between atoms: C_44  and  N_45
REMARK                            x       y       z     vdW  Elec       q    Type
REMARK                         _______ _______ _______ _____ _____    ______ ____
ROOT
ATOM      1  N   UNL     1      -1.429  -5.775   0.000  0.00  0.00    +0.000 NA
ENDROOT
BRANCH   1   2
ATOM      2  C   UNL     1      -1.429  -6.600   0.000  0.00  0.00    +0.000 C 
ATOM      3  C   UNL     1      -1.711  -7.375   0.000  0.00  0.00    +0.000 C 
ATOM      4  C   UNL     1      -1.181  -8.007   0.000  0.00  0.00    +0.000 C 
ATOM      5  O   UNL     1      -0.368  -7.864   0.000  0.00  0.00    +0.000 OA
ATOM      6  C   UNL     1      -0.086  -7.089   0.000  0.00  0.00    +0.000 C 
ATOM      7  C   UNL     1      -0.617  -6.457   0.000  0.00  0.00    +0.000 C 
BRANCH   2   8
ATOM      8  C   UNL     1      -2.241  -6.457   0.000  0.00  0.00    +0.000 C 
ATOM      9  O   UNL     1      -2.524  -5.681   0.000  0.00  0.00    +0.000 OA
ATOM     10  N   UNL     1      -2.772  -7.089   0.000  0.00  0.00    +0.000 N 
ATOM     11  C   UNL     1      -2.490  -7.864   0.000  0.00  0.00    +0.000 C 
ATOM     12  C   UNL     1      -3.020  -8.496   0.000  0.00  0.00    +0.000 C 
ATOM     13  N   UNL     1      -3.832  -8.353   0.000  0.00  0.00    +0.000 N 
ATOM     14  C   UNL     1      -4.114  -7.577   0.000  0.00  0.00    +0.000 C 
ATOM     15  C   UNL     1      -3.584  -6.946   0.000  0.00  0.00    +0.000 C 
ATOM     16  C   UNL     1      -4.363  -8.985   0.000  0.00  0.00    +0.000 C 
ATOM     17  O   UNL     1      -5.175  -8.841   0.000  0.00  0.00    +0.000 OA
BRANCH  16  18
ATOM     18  C   UNL     1      -4.080  -9.760   0.000  0.00  0.00    +0.000 C 
ATOM     19  N   UNL     1      -3.268  -9.903   0.000  0.00  0.00    +0.000 NA
BRANCH  18  20
ATOM     20  C   UNL     1      -4.611 -10.392   0.000  0.00  0.00    +0.000 C 
BRANCH  20  21
ATOM     21  C   UNL     1      -4.329 -11.167   0.000  0.00  0.00    +0.000 C 
BRANCH  21  22
ATOM     22  C   UNL     1      -4.859 -11.799   0.000  0.00  0.00    +0.000 C 
BRANCH  22  23
ATOM     23  N   UNL     1      -4.577 -12.574   0.000  0.00  0.00    +0.000 N 
ATOM     24  C   UNL     1      -4.295 -13.350   0.000  0.00  0.00    +0.000 C 
ATOM     25  C   UNL     1      -5.352 -12.857   0.000  0.00  0.00    +0.000 C 
ATOM     26  C   UNL     1      -3.801 -12.292   0.000  0.00  0.00    +0.000 C 
ENDBRANCH  22  23
ENDBRANCH  21  22
ENDBRANCH  20  21
ENDBRANCH  18  20
ENDBRANCH  16  18
ENDBRANCH   2   8
ENDBRANCH   1   2
BRANCH   1  27
ATOM     27  S   UNL     1      -0.715  -5.362   0.000  0.00  0.00    +0.000 S 
ATOM     28  O   UNL     1      -1.127  -4.648   0.000  0.00  0.00    +0.000 OA
ATOM     29  O   UNL     1      -0.302  -6.077   0.000  0.00  0.00    +0.000 OA
BRANCH  27  35
ATOM     30  C   UNL     1       0.715  -3.712   0.000  0.00  0.00    +0.000 A 
ATOM     31  C   UNL     1       1.429  -4.125   0.000  0.00  0.00    +0.000 A 
ATOM     32 CL   UNL     1       2.143  -3.712   0.000  0.00  0.00    +0.000 Cl
ATOM     33  C   UNL     1       1.429  -4.950   0.000  0.00  0.00    +0.000 A 
ATOM     34  C   UNL     1       0.715  -5.362   0.000  0.00  0.00    +0.000 A 
ATOM     35  C   UNL     1       0.000  -4.950   0.000  0.00  0.00    +0.000 A 
ATOM     36  C   UNL     1       0.000  -4.125   0.000  0.00  0.00    +0.000 A 
ATOM     37 CL   UNL     1      -0.715  -3.712   0.000  0.00  0.00    +0.000 Cl
BRANCH  30  38
ATOM     38  C   UNL     1       0.715  -2.888   0.000  0.00  0.00    +0.000 C 
BRANCH  38  39
ATOM     39  O   UNL     1       1.429  -2.475   0.000  0.00  0.00    +0.000 OA
BRANCH  39  48
ATOM     40  C   UNL     1      -1.429  -1.650   0.000  0.00  0.00    +0.000 C 
ATOM     41  C   UNL     1      -0.715  -1.238   0.000  0.00  0.00    +0.000 A 
ATOM     42  N   UNL     1       0.000  -1.650   0.000  0.00  0.00    +0.000 NA
ATOM     43  C   UNL     1       0.715  -1.238   0.000  0.00  0.00    +0.000 A 
ATOM     44  C   UNL     1       0.715  -0.412   0.000  0.00  0.00    +0.000 A 
ATOM     45  C   UNL     1       1.429   0.000   0.000  0.00  0.00    +0.000 A 
ATOM     46  C   UNL     1       2.143  -0.412   0.000  0.00  0.00    +0.000 A 
ATOM     47  C   UNL     1       2.143  -1.238   0.000  0.00  0.00    +0.000 A 
ATOM     48  C   UNL     1       1.429  -1.650   0.000  0.00  0.00    +0.000 A 
ATOM     49  C   UNL     1       0.000   0.000   0.000  0.00  0.00    +0.000 A 
ATOM     50  C   UNL     1       0.000   0.825   0.000  0.00  0.00    +0.000 C 
ATOM     51  C   UNL     1      -0.715  -0.412   0.000  0.00  0.00    +0.000 A 
ENDBRANCH  39  48
ENDBRANCH  38  39
ENDBRANCH  30  38
ENDBRANCH  27  35
ENDBRANCH   1  27
TORSDOF 12
