REMARK  Name = 
REMARK  5 active torsions:
REMARK  status: ('A' for Active; 'I' for Inactive)
REMARK    1  A    between atoms: P_1  and  O_4
REMARK    2  A    between atoms: O_4  and  C_17
REMARK    3  A    between atoms: N_11  and  C_15
REMARK    4  A    between atoms: C_14  and  C_17
REMARK    5  A    between atoms: C_20  and  C_22
REMARK                            x       y       z     vdW  Elec       q    Type
REMARK                         _______ _______ _______ _____ _____    ______ ____
ROOT
ATOM      1  O   UNL     1      -0.053  -0.542   0.000  0.00  0.00    +0.000 OA
ATOM      2  O   UNL     1      -1.618  -1.994   0.000  0.00  0.00    +0.000 OA
ATOM      3  C   UNL     1      -1.133  -1.327   0.000  0.00  0.00    +0.000 C 
ATOM      4  C   UNL     1      -0.308  -1.327   0.000  0.00  0.00    +0.000 C 
ATOM      5  C   UNL     1      -0.721  -0.057   0.000  0.00  0.00    +0.000 C 
ATOM      6  C   UNL     1      -1.388  -0.542   0.000  0.00  0.00    +0.000 C 
ENDROOT
BRANCH   5   9
ATOM      7  O   UNL     1      -2.150   0.768   0.000  0.00  0.00    +0.000 OA
ATOM      8  O   UNL     1      -0.721   3.243   0.000  0.00  0.00    +0.000 OA
ATOM      9  N   UNL     1      -0.721   0.768   0.000  0.00  0.00    +0.000 N 
ATOM     10  N   UNL     1      -1.435   2.005   0.000  0.00  0.00    +0.000 N 
ATOM     11  C   UNL     1      -0.006   1.180   0.000  0.00  0.00    +0.000 A 
ATOM     12  C   UNL     1      -1.435   1.180   0.000  0.00  0.00    +0.000 A 
ATOM     13  C   UNL     1      -0.006   2.005   0.000  0.00  0.00    +0.000 A 
ATOM     14  C   UNL     1      -0.721   2.418   0.000  0.00  0.00    +0.000 A 
ATOM     15  H   UNL     1      -1.878   2.261   0.000  0.00  0.00    +0.000 HD
BRANCH  13  17
ATOM     16  O   UNL     1       1.423   2.005   0.000  0.00  0.00    +0.000 OA
ATOM     17  C   UNL     1       0.708   2.418   0.000  0.00  0.00    +0.000 C 
ENDBRANCH  13  17
ENDBRANCH   5   9
BRANCH   4  18
ATOM     18  C   UNL     1       0.177  -1.994   0.000  0.00  0.00    +0.000 C 
BRANCH  18  19
ATOM     19  O   UNL     1       0.997  -1.908   0.000  0.00  0.00    +0.000 OA
BRANCH  19  20
ATOM     20  P   UNL     1       1.482  -2.575   0.000  0.00  0.00    +0.000 P 
ATOM     21  O   UNL     1       2.150  -2.090   0.000  0.00  0.00    +0.000 OA
ATOM     22  O   UNL     1       1.967  -3.243   0.000  0.00  0.00    +0.000 OA
ATOM     23  O   UNL     1       0.815  -3.060   0.000  0.00  0.00    +0.000 OA
ENDBRANCH  19  20
ENDBRANCH  18  19
ENDBRANCH   4  18
TORSDOF 5
