REMARK  Name = 
REMARK  5 active torsions:
REMARK  status: ('A' for Active; 'I' for Inactive)
REMARK    1  A    between atoms: C_4  and  N_6
REMARK    2  A    between atoms: C_9  and  C_10
REMARK    3  A    between atoms: C_14  and  C_15
REMARK    4  A    between atoms: C_15  and  C_16
REMARK    5  A    between atoms: C_24  and  C_33
REMARK                            x       y       z     vdW  Elec       q    Type
REMARK                         _______ _______ _______ _____ _____    ______ ____
ROOT
ATOM      1  C   UNL     1      -1.760  -0.715   0.000  0.00  0.00    +0.000 A 
ATOM      2  C   UNL     1      -1.347   0.000   0.000  0.00  0.00    +0.000 A 
ATOM      3  C   UNL     1      -0.522   0.000   0.000  0.00  0.00    +0.000 A 
ATOM      4  C   UNL     1      -0.110  -0.715   0.000  0.00  0.00    +0.000 A 
ATOM      5  C   UNL     1       0.715  -0.715   0.000  0.00  0.00    +0.000 C 
ATOM      6  C   UNL     1       1.128   0.000   0.000  0.00  0.00    +0.000 C 
ATOM      7  C   UNL     1       1.953   0.000   0.000  0.00  0.00    +0.000 C 
ATOM      8  C   UNL     1       2.365  -0.715   0.000  0.00  0.00    +0.000 C 
ATOM      9  C   UNL     1       1.953  -1.429   0.000  0.00  0.00    +0.000 C 
ATOM     10  C   UNL     1       1.128  -1.429   0.000  0.00  0.00    +0.000 C 
ATOM     11  C   UNL     1       0.715  -2.143   0.000  0.00  0.00    +0.000 C 
ATOM     12  C   UNL     1      -0.110  -2.143   0.000  0.00  0.00    +0.000 C 
ATOM     13  C   UNL     1      -0.522  -1.429   0.000  0.00  0.00    +0.000 A 
ATOM     14  C   UNL     1      -1.347  -1.429   0.000  0.00  0.00    +0.000 A 
ATOM     15  O   UNL     1       2.946   0.026   0.000  0.00  0.00    +0.000 OA
ENDROOT
BRANCH   8  16
ATOM     16  C   UNL     1       3.094  -1.102   0.000  0.00  0.00    +0.000 C 
ATOM     17  F   UNL     1       3.822  -1.489   0.000  0.00  0.00    +0.000 F 
ATOM     18  F   UNL     1       3.510  -0.462   0.000  0.00  0.00    +0.000 F 
ATOM     19  F   UNL     1       2.706  -1.830   0.000  0.00  0.00    +0.000 F 
ENDBRANCH   8  16
BRANCH   1  21
ATOM     20  N   UNL     1      -2.997   0.000   0.000  0.00  0.00    +0.000 NA
ATOM     21  C   UNL     1      -2.585  -0.715   0.000  0.00  0.00    +0.000 C 
ATOM     22  O   UNL     1      -2.997  -1.429   0.000  0.00  0.00    +0.000 OA
BRANCH  20  26
ATOM     23  N   UNL     1      -2.585   2.143   0.000  0.00  0.00    +0.000 NA
ATOM     24  C   UNL     1      -1.760   2.143   0.000  0.00  0.00    +0.000 A 
ATOM     25  C   UNL     1      -2.997   1.429   0.000  0.00  0.00    +0.000 A 
ATOM     26  C   UNL     1      -2.585   0.714   0.000  0.00  0.00    +0.000 A 
ATOM     27  C   UNL     1      -3.822   1.429   0.000  0.00  0.00    +0.000 C 
ATOM     28  C   UNL     1      -1.760   0.714   0.000  0.00  0.00    +0.000 A 
ATOM     29  C   UNL     1      -1.347   1.429   0.000  0.00  0.00    +0.000 A 
ENDBRANCH  20  26
ENDBRANCH   1  21
BRANCH   5  30
ATOM     30  C   UNL     1       0.303   0.000   0.000  0.00  0.00    +0.000 C 
BRANCH  30  31
ATOM     31  C   UNL     1       0.715   0.714   0.000  0.00  0.00    +0.000 A 
ATOM     32  C   UNL     1       1.540   0.714   0.000  0.00  0.00    +0.000 A 
ATOM     33  C   UNL     1       1.953   1.429   0.000  0.00  0.00    +0.000 A 
ATOM     34  C   UNL     1       1.540   2.143   0.000  0.00  0.00    +0.000 A 
ATOM     35  C   UNL     1       0.715   2.143   0.000  0.00  0.00    +0.000 A 
ATOM     36  C   UNL     1       0.303   1.429   0.000  0.00  0.00    +0.000 A 
ENDBRANCH  30  31
ENDBRANCH   5  30
TORSDOF 5
