REMARK  Name = 
REMARK  5 active torsions:
REMARK  status: ('A' for Active; 'I' for Inactive)
REMARK    1  A    between atoms: C_5  and  C_7
REMARK    2  A    between atoms: C_7  and  C_8
REMARK    3  A    between atoms: C_8  and  N_10
REMARK    4  A    between atoms: C_8  and  C_16
REMARK    5  A    between atoms: N_10  and  C_13
REMARK                            x       y       z     vdW  Elec       q    Type
REMARK                         _______ _______ _______ _____ _____    ______ ____
ROOT
ATOM      1  C   UNL     1       0.029   0.419   0.000  0.00  0.00    +0.000 C 
ATOM      2  O   UNL     1       0.029   1.238   0.000  0.00  0.00    +0.000 OA
ENDROOT
BRANCH   1   7
ATOM      3  C   UNL     1      -2.125   0.000   0.000  0.00  0.00    +0.000 A 
ATOM      4  C   UNL     1      -2.125  -0.825   0.000  0.00  0.00    +0.000 A 
ATOM      5  C   UNL     1      -1.411  -1.238   0.000  0.00  0.00    +0.000 A 
ATOM      6  C   UNL     1      -0.696  -0.825   0.000  0.00  0.00    +0.000 A 
ATOM      7  C   UNL     1      -0.696   0.000   0.000  0.00  0.00    +0.000 A 
ATOM      8  C   UNL     1      -1.411   0.412   0.000  0.00  0.00    +0.000 A 
ATOM      9  O   UNL     1      -2.840  -1.238   0.000  0.00  0.00    +0.000 OA
ATOM     10  O   UNL     1      -2.840   0.412   0.000  0.00  0.00    +0.000 OA
ENDBRANCH   1   7
BRANCH   1  11
ATOM     11  C   UNL     1       0.739   0.009   0.000  0.00  0.00    +0.000 C 
BRANCH  11  12
ATOM     12  C   UNL     1       0.740  -0.825   0.000  0.00  0.00    +0.000 C 
ATOM     13  C   UNL     1       1.440  -1.229   0.000  0.00  0.00    +0.000 C 
ENDBRANCH  11  12
BRANCH  11  14
ATOM     14  N   UNL     1       1.436   0.411   0.000  0.00  0.00    +0.000 NA
BRANCH  14  15
ATOM     15  C   UNL     1       2.140   0.005   0.000  0.00  0.00    +0.000 C 
ATOM     16  C   UNL     1       2.840   0.409   0.000  0.00  0.00    +0.000 C 
ATOM     17  C   UNL     1       2.140  -0.825   0.000  0.00  0.00    +0.000 C 
ENDBRANCH  14  15
ENDBRANCH  11  14
ENDBRANCH   1  11
TORSDOF 5
