REMARK  Name = 
REMARK  3 active torsions:
REMARK  status: ('A' for Active; 'I' for Inactive)
REMARK    1  A    between atoms: C_5  and  C_11
REMARK    2  A    between atoms: C_11  and  CA_12
REMARK    3  A    between atoms: CA_12  and  C_14
REMARK                            x       y       z     vdW  Elec       q    Type
REMARK                         _______ _______ _______ _____ _____    ______ ____
ROOT
ATOM      1  C   UNL     1      -0.402   1.897   0.000  0.00  0.00    +0.000 C 
ATOM      2  C   UNL     1      -1.116   1.484   0.000  0.00  0.00    +0.000 C 
ATOM      3  C   UNL     1      -1.116   0.659   0.000  0.00  0.00    +0.000 C 
ATOM      4  C   UNL     1      -0.402   0.246   0.000  0.00  0.00    +0.000 C 
ATOM      5  C   UNL     1       0.313   0.659   0.000  0.00  0.00    +0.000 C 
ATOM      6  C   UNL     1       0.313   1.484   0.000  0.00  0.00    +0.000 C 
ATOM      7  N   UNL     1      -0.402   2.722   0.000  0.00  0.00    +0.000 NA
ATOM      8  O   UNL     1      -0.402  -0.579   0.000  0.00  0.00    +0.000 OA
ATOM      9  O   UNL     1      -1.831   1.897   0.000  0.00  0.00    +0.000 OA
ATOM     10  H   UNL     1      -1.116   3.134   0.000  0.00  0.00    +0.000 HD
ENDROOT
BRANCH   5  11
ATOM     11  C   UNL     1       1.027   0.246   0.000  0.00  0.00    +0.000 C 
BRANCH  11  12
ATOM     12  CA  UNL     1       1.027  -0.579   0.000  0.00  0.00    +0.000 C 
ATOM     13  N   UNL     1       0.313  -0.991   0.000  0.00  0.00    +0.000 NA
BRANCH  12  14
ATOM     14  C   UNL     1       1.742  -0.991   0.000  0.00  0.00    +0.000 C 
ATOM     15  OXT UNL     1       1.742  -1.816   0.000  0.00  0.00    +0.000 OA
ATOM     16  O   UNL     1       2.456  -0.579   0.000  0.00  0.00    +0.000 OA
ENDBRANCH  12  14
ENDBRANCH  11  12
ENDBRANCH   5  11
TORSDOF 3
