REMARK  Name = 
REMARK  6 active torsions:
REMARK  status: ('A' for Active; 'I' for Inactive)
REMARK    1  A    between atoms: C_1  and  C_2
REMARK    2  A    between atoms: C_1  and  C_5
REMARK    3  A    between atoms: C_5  and  N_6
REMARK    4  A    between atoms: N_6  and  C_17
REMARK    5  A    between atoms: C_12  and  C_20
REMARK    6  A    between atoms: C_17  and  C_20
REMARK                            x       y       z     vdW  Elec       q    Type
REMARK                         _______ _______ _______ _____ _____    ______ ____
ROOT
ATOM      1  C   UNL     1      -0.694   0.014   0.000  0.00  0.00    +0.000 C 
ATOM      2  C   UNL     1      -0.714   0.811   0.000  0.00  0.00    +0.000 C 
ENDROOT
BRANCH   1   3
ATOM      3  C   UNL     1      -1.426  -0.416   0.000  0.00  0.00    +0.000 C 
ATOM      4  O   UNL     1      -1.426  -1.239   0.000  0.00  0.00    +0.000 OA
BRANCH   3   5
ATOM      5  C   UNL     1      -2.153   0.014   0.000  0.00  0.00    +0.000 A 
ATOM      6  C   UNL     1      -2.857  -0.416   0.000  0.00  0.00    +0.000 A 
ATOM      7  C   UNL     1      -2.153   0.780   0.000  0.00  0.00    +0.000 A 
ATOM      8  C   UNL     1      -3.586   0.811   0.000  0.00  0.00    +0.000 A 
ATOM      9  C   UNL     1      -2.857   1.223   0.000  0.00  0.00    +0.000 A 
ATOM     10  C   UNL     1      -3.586  -0.014   0.000  0.00  0.00    +0.000 A 
ATOM     11  O   UNL     1      -4.290   1.223   0.000  0.00  0.00    +0.000 OA
ENDBRANCH   3   5
ENDBRANCH   1   3
BRANCH   1  12
ATOM     12  N   UNL     1       0.010  -0.416   0.000  0.00  0.00    +0.000 NA
BRANCH  12  13
ATOM     13  C   UNL     1       0.714  -0.001   0.000  0.00  0.00    +0.000 C 
BRANCH  13  14
ATOM     14  C   UNL     1       1.426  -0.416   0.000  0.00  0.00    +0.000 C 
BRANCH  14  16
ATOM     15  C   UNL     1       3.578   0.819   0.000  0.00  0.00    +0.000 A 
ATOM     16  C   UNL     1       2.148   0.014   0.000  0.00  0.00    +0.000 A 
ATOM     17  C   UNL     1       3.578   0.014   0.000  0.00  0.00    +0.000 A 
ATOM     18  C   UNL     1       2.851   1.239   0.000  0.00  0.00    +0.000 A 
ATOM     19  C   UNL     1       2.859  -0.396   0.000  0.00  0.00    +0.000 A 
ATOM     20  C   UNL     1       2.148   0.811   0.000  0.00  0.00    +0.000 A 
ATOM     21  O   UNL     1       4.290   1.239   0.000  0.00  0.00    +0.000 OA
ENDBRANCH  14  16
ENDBRANCH  13  14
ENDBRANCH  12  13
ENDBRANCH   1  12
TORSDOF 6
