REMARK  Name = 
REMARK  9 active torsions:
REMARK  status: ('A' for Active; 'I' for Inactive)
REMARK    1  A    between atoms: C_4  and  C_5
REMARK    2  A    between atoms: C_5  and  C_6
REMARK    3  A    between atoms: C_6  and  C_7
REMARK    4  A    between atoms: C_9  and  C_10
REMARK    5  A    between atoms: C_10  and  C_11
REMARK    6  A    between atoms: C_11  and  C_12
REMARK    7  A    between atoms: C_14  and  C_15
REMARK    8  A    between atoms: C_16  and  C_17
REMARK    9  A    between atoms: C_19  and  C_20
REMARK                            x       y       z     vdW  Elec       q    Type
REMARK                         _______ _______ _______ _____ _____    ______ ____
ROOT
ATOM      1  C   UNL     1       3.712   2.143   0.000  0.00  0.00    +0.000 C 
ENDROOT
BRANCH   1   2
ATOM      2  C   UNL     1       3.300   1.429   0.000  0.00  0.00    +0.000 C 
ATOM      3  C   UNL     1       3.712   0.715   0.000  0.00  0.00    +0.000 C 
ATOM      4  C   UNL     1       2.475   1.429   0.000  0.00  0.00    +0.000 C 
BRANCH   4   5
ATOM      5  C   UNL     1       2.062   0.715   0.000  0.00  0.00    +0.000 C 
ATOM      6  C   UNL     1       1.238   0.715   0.000  0.00  0.00    +0.000 C 
BRANCH   6   7
ATOM      7  C   UNL     1       0.825   0.000   0.000  0.00  0.00    +0.000 C 
ATOM      8  C   UNL     1       1.238  -0.715   0.000  0.00  0.00    +0.000 C 
ATOM      9  C   UNL     1       0.000   0.000   0.000  0.00  0.00    +0.000 C 
BRANCH   9  10
ATOM     10  C   UNL     1      -0.412  -0.715   0.000  0.00  0.00    +0.000 C 
ATOM     11  O   UNL     1       0.000  -1.429   0.000  0.00  0.00    +0.000 OA
ATOM     12  O   UNL     1      -1.238  -0.715   0.000  0.00  0.00    +0.000 OA
ENDBRANCH   9  10
ENDBRANCH   6   7
ENDBRANCH   4   5
ENDBRANCH   1   2
BRANCH   1  13
ATOM     13  C   UNL     1       4.537   2.143   0.000  0.00  0.00    +0.000 C 
BRANCH  13  16
ATOM     14  C   UNL     1       5.775   2.858   0.000  0.00  0.00    +0.000 C 
ATOM     15  C   UNL     1       6.188   2.143   0.000  0.00  0.00    +0.000 C 
ATOM     16  C   UNL     1       4.950   2.858   0.000  0.00  0.00    +0.000 C 
BRANCH  14  17
ATOM     17  C   UNL     1       6.188   3.572   0.000  0.00  0.00    +0.000 C 
BRANCH  17  18
ATOM     18  C   UNL     1       7.013   3.572   0.000  0.00  0.00    +0.000 C 
BRANCH  18  22
ATOM     19  C   UNL     1       8.662   5.001   0.000  0.00  0.00    +0.000 C 
ATOM     20  C   UNL     1       8.250   4.287   0.000  0.00  0.00    +0.000 C 
ATOM     21  C   UNL     1       8.662   3.572   0.000  0.00  0.00    +0.000 C 
ATOM     22  C   UNL     1       7.425   4.287   0.000  0.00  0.00    +0.000 C 
ENDBRANCH  18  22
ENDBRANCH  17  18
ENDBRANCH  14  17
ENDBRANCH  13  16
ENDBRANCH   1  13
TORSDOF 9
