REMARK  Name = 
REMARK  10 active torsions:
REMARK  status: ('A' for Active; 'I' for Inactive)
REMARK    1  A    between atoms: C_1  and  N_31
REMARK    2  A    between atoms: C_3  and  O_18
REMARK    3  A    between atoms: C_5  and  O_19
REMARK    4  A    between atoms: C_6  and  O_18
REMARK    5  A    between atoms: C_10  and  C_13
REMARK    6  A    between atoms: O_19  and  C_20
REMARK    7  A    between atoms: C_22  and  C_26
REMARK    8  A    between atoms: C_32  and  C_35
REMARK    9  A    between atoms: C_32  and  C_37
REMARK   10  A    between atoms: C_33  and  C_37
REMARK                            x       y       z     vdW  Elec       q    Type
REMARK                         _______ _______ _______ _____ _____    ______ ____
ROOT
ATOM      1  C   UNL     1       0.000  -0.412   0.000  0.00  0.00    +0.000 C 
ATOM      2  C   UNL     1      -0.715   0.825   0.000  0.00  0.00    +0.000 C 
ATOM      3  C   UNL     1      -0.715  -0.825   0.000  0.00  0.00    +0.000 C 
ATOM      4  C   UNL     1      -1.429  -0.412   0.000  0.00  0.00    +0.000 C 
ATOM      5  C   UNL     1      -1.429   0.412   0.000  0.00  0.00    +0.000 C 
ATOM      6  N   UNL     1      -0.714   1.650   0.000  0.00  0.00    +0.000 NA
ATOM      7  O   UNL     1      -2.143  -0.825   0.000  0.00  0.00    +0.000 OA
ATOM      8  C   UNL     1       0.000   0.412   0.000  0.00  0.00    +0.000 C 
ENDROOT
BRANCH   1   9
ATOM      9  N   UNL     1       0.714  -0.825   0.000  0.00  0.00    +0.000 NA
ATOM     10  C   UNL     1       1.429  -0.412   0.000  0.00  0.00    +0.000 C 
ATOM     11  O   UNL     1       1.429   0.412   0.000  0.00  0.00    +0.000 OA
BRANCH  10  12
ATOM     12  C   UNL     1       2.143  -0.825   0.000  0.00  0.00    +0.000 C 
ATOM     13  O   UNL     1       2.143  -1.650   0.000  0.00  0.00    +0.000 OA
BRANCH  12  14
ATOM     14  C   UNL     1       2.858  -0.412   0.000  0.00  0.00    +0.000 C 
BRANCH  14  15
ATOM     15  C   UNL     1       3.572  -0.825   0.000  0.00  0.00    +0.000 C 
ATOM     16  N   UNL     1       4.287  -0.412   0.000  0.00  0.00    +0.000 NA
ENDBRANCH  14  15
ENDBRANCH  12  14
ENDBRANCH  10  12
ENDBRANCH   1   9
BRANCH   5  17
ATOM     17  O   UNL     1      -2.143   0.825   0.000  0.00  0.00    +0.000 OA
BRANCH  17  18
ATOM     18  C   UNL     1      -2.143   1.650   0.000  0.00  0.00    +0.000 C 
ATOM     19  O   UNL     1      -1.429   2.062   0.000  0.00  0.00    +0.000 OA
ATOM     20  C   UNL     1      -1.429   2.888   0.000  0.00  0.00    +0.000 C 
ATOM     21  C   UNL     1      -2.143   3.300   0.000  0.00  0.00    +0.000 C 
ATOM     22  C   UNL     1      -2.858   2.888   0.000  0.00  0.00    +0.000 C 
ATOM     23  C   UNL     1      -2.858   2.062   0.000  0.00  0.00    +0.000 C 
ATOM     24  O   UNL     1      -3.572   1.650   0.000  0.00  0.00    +0.000 OA
ATOM     25  O   UNL     1      -3.572   3.300   0.000  0.00  0.00    +0.000 OA
ATOM     26  O   UNL     1      -2.143   4.125   0.000  0.00  0.00    +0.000 OA
BRANCH  20  27
ATOM     27  C   UNL     1      -0.714   3.300   0.000  0.00  0.00    +0.000 C 
ATOM     28  N   UNL     1       0.000   2.888   0.000  0.00  0.00    +0.000 NA
ENDBRANCH  20  27
ENDBRANCH  17  18
ENDBRANCH   5  17
BRANCH   3  29
ATOM     29  O   UNL     1      -0.714  -1.650   0.000  0.00  0.00    +0.000 OA
BRANCH  29  30
ATOM     30  C   UNL     1      -1.429  -2.062   0.000  0.00  0.00    +0.000 C 
ATOM     31  C   UNL     1      -1.429  -2.888   0.000  0.00  0.00    +0.000 C 
ATOM     32  C   UNL     1      -2.143  -3.300   0.000  0.00  0.00    +0.000 C 
ATOM     33  C   UNL     1      -2.858  -2.888   0.000  0.00  0.00    +0.000 C 
ATOM     34  C   UNL     1      -2.858  -2.062   0.000  0.00  0.00    +0.000 C 
ATOM     35  O   UNL     1      -2.143  -1.650   0.000  0.00  0.00    +0.000 OA
ATOM     36  O   UNL     1      -3.572  -3.300   0.000  0.00  0.00    +0.000 OA
ATOM     37  N   UNL     1      -2.143  -4.125   0.000  0.00  0.00    +0.000 NA
ATOM     38  O   UNL     1      -0.714  -3.300   0.000  0.00  0.00    +0.000 OA
BRANCH  34  39
ATOM     39  C   UNL     1      -3.572  -1.650   0.000  0.00  0.00    +0.000 C 
ATOM     40  O   UNL     1      -4.287  -2.062   0.000  0.00  0.00    +0.000 OA
ENDBRANCH  34  39
ENDBRANCH  29  30
ENDBRANCH   3  29
TORSDOF 10
