REMARK  Name = 
REMARK  1 active torsions:
REMARK  status: ('A' for Active; 'I' for Inactive)
REMARK    1  A    between atoms: N_5  and  N_6
REMARK                            x       y       z     vdW  Elec       q    Type
REMARK                         _______ _______ _______ _____ _____    ______ ____
ROOT
ATOM      1  O   UNL     1       2.553  -1.354   0.000  0.00  0.00    +0.000 OA
ATOM      2  O   UNL     1      -0.634   0.926   0.000  0.00  0.00    +0.000 OA
ATOM      3  N   UNL     1       2.297   0.765   0.000  0.00  0.00    +0.000 N 
ATOM      4  N   UNL     1      -0.634  -0.726   0.000  0.00  0.00    +0.000 NA
ATOM      5  C   UNL     1       1.507  -0.314   0.000  0.00  0.00    +0.000 C 
ATOM      6  C   UNL     1       1.507   0.509   0.000  0.00  0.00    +0.000 C 
ATOM      7  C   UNL     1       2.297  -0.570   0.000  0.00  0.00    +0.000 C 
ATOM      8  C   UNL     1       0.078  -0.314   0.000  0.00  0.00    +0.000 C 
ATOM      9  C   UNL     1       0.795  -0.726   0.000  0.00  0.00    +0.000 C 
ATOM     10  C   UNL     1       0.078   0.509   0.000  0.00  0.00    +0.000 C 
ATOM     11  C   UNL     1       0.795   0.926   0.000  0.00  0.00    +0.000 C 
ATOM     12  C   UNL     1       2.781   0.097   0.000  0.00  0.00    +0.000 C 
ATOM     13  C   UNL     1       2.547   1.554   0.000  0.00  0.00    +0.000 C 
ENDROOT
BRANCH   4  15
ATOM     14  O   UNL     1      -2.063  -1.554   0.000  0.00  0.00    +0.000 OA
ATOM     15  N   UNL     1      -1.351  -0.314   0.000  0.00  0.00    +0.000 NA
ATOM     16  N   UNL     1      -2.781  -0.314   0.000  0.00  0.00    +0.000 NA
ATOM     17  C   UNL     1      -2.063  -0.731   0.000  0.00  0.00    +0.000 C 
ENDBRANCH   4  15
TORSDOF 1
