REMARK  Name = 
REMARK  11 active torsions:
REMARK  status: ('A' for Active; 'I' for Inactive)
REMARK    1  A    between atoms: C_2  and  C_4
REMARK    2  A    between atoms: C_2  and  N_21
REMARK    3  A    between atoms: C_4  and  C_5
REMARK    4  A    between atoms: C_8  and  O_11
REMARK    5  A    between atoms: O_11  and  C_12
REMARK    6  A    between atoms: C_15  and  C_18
REMARK    7  A    between atoms: N_21  and  C_22
REMARK    8  A    between atoms: C_22  and  C_23
REMARK    9  A    between atoms: C_23  and  C_24
REMARK   10  A    between atoms: C_24  and  O_25
REMARK   11  A    between atoms: O_25  and  C_26
REMARK                            x       y       z     vdW  Elec       q    Type
REMARK                         _______ _______ _______ _____ _____    ______ ____
ROOT
ATOM      1  C   UNL     1       4.403  -4.013   0.000  0.00  0.00    +0.000 C 
ATOM      2  C   UNL     1       3.790  -4.565   0.000  0.00  0.00    +0.000 C 
ATOM      3  C   UNL     1       3.177  -5.117   0.000  0.00  0.00    +0.000 C 
ENDROOT
BRANCH   2   4
ATOM      4  C   UNL     1       4.342  -5.178   0.000  0.00  0.00    +0.000 C 
BRANCH   4   5
ATOM      5  C   UNL     1       4.087  -5.963   0.000  0.00  0.00    +0.000 A 
ATOM      6  C   UNL     1       4.639  -6.576   0.000  0.00  0.00    +0.000 A 
ATOM      7  C   UNL     1       4.384  -7.361   0.000  0.00  0.00    +0.000 A 
ATOM      8  C   UNL     1       3.577  -7.532   0.000  0.00  0.00    +0.000 A 
ATOM      9  C   UNL     1       3.025  -6.919   0.000  0.00  0.00    +0.000 A 
ATOM     10  C   UNL     1       3.280  -6.135   0.000  0.00  0.00    +0.000 A 
BRANCH   8  11
ATOM     11  O   UNL     1       3.322  -8.317   0.000  0.00  0.00    +0.000 OA
BRANCH  11  12
ATOM     12  C   UNL     1       2.515  -8.488   0.000  0.00  0.00    +0.000 A 
ATOM     13  C   UNL     1       2.260  -9.273   0.000  0.00  0.00    +0.000 A 
ATOM     14  C   UNL     1       1.453  -9.444   0.000  0.00  0.00    +0.000 A 
ATOM     15  C   UNL     1       0.901  -8.831   0.000  0.00  0.00    +0.000 A 
ATOM     16  C   UNL     1       1.156  -8.047   0.000  0.00  0.00    +0.000 A 
ATOM     17  N   UNL     1       1.963  -7.875   0.000  0.00  0.00    +0.000 NA
BRANCH  15  18
ATOM     18  C   UNL     1       0.094  -9.003   0.000  0.00  0.00    +0.000 C 
ATOM     19  O   UNL     1      -0.458  -8.390   0.000  0.00  0.00    +0.000 OA
ATOM     20  N   UNL     1      -0.161  -9.788   0.000  0.00  0.00    +0.000 NA
ENDBRANCH  15  18
ENDBRANCH  11  12
ENDBRANCH   8  11
ENDBRANCH   4   5
ENDBRANCH   2   4
BRANCH   2  21
ATOM     21  N   UNL     1       3.238  -3.952   0.000  0.00  0.00    +0.000 NA
BRANCH  21  22
ATOM     22  C   UNL     1       3.493  -3.168   0.000  0.00  0.00    +0.000 C 
BRANCH  22  23
ATOM     23  C   UNL     1       2.941  -2.554   0.000  0.00  0.00    +0.000 C 
ATOM     24  O   UNL     1       2.134  -2.726   0.000  0.00  0.00    +0.000 OA
BRANCH  23  25
ATOM     25  C   UNL     1       3.196  -1.770   0.000  0.00  0.00    +0.000 C 
BRANCH  25  26
ATOM     26  O   UNL     1       2.643  -1.157   0.000  0.00  0.00    +0.000 OA
BRANCH  26  27
ATOM     27  C   UNL     1       2.898  -0.372   0.000  0.00  0.00    +0.000 A 
ATOM     28  C   UNL     1       3.705  -0.201   0.000  0.00  0.00    +0.000 A 
ATOM     29  C   UNL     1       3.960   0.584   0.000  0.00  0.00    +0.000 A 
ATOM     30  C   UNL     1       3.408   1.197   0.000  0.00  0.00    +0.000 A 
ATOM     31  C   UNL     1       2.601   1.026   0.000  0.00  0.00    +0.000 A 
ATOM     32  C   UNL     1       2.346   0.241   0.000  0.00  0.00    +0.000 A 
ATOM     33  C   UNL     1       1.521   0.241   0.000  0.00  0.00    +0.000 A 
ATOM     34  C   UNL     1       0.969  -0.372   0.000  0.00  0.00    +0.000 A 
ATOM     35  C   UNL     1       0.162  -0.201   0.000  0.00  0.00    +0.000 A 
ATOM     36  C   UNL     1      -0.092   0.584   0.000  0.00  0.00    +0.000 A 
ATOM     37  C   UNL     1       0.460   1.197   0.000  0.00  0.00    +0.000 A 
ATOM     38  C   UNL     1       1.266   1.026   0.000  0.00  0.00    +0.000 A 
ATOM     39  N   UNL     1       1.934   1.510   0.000  0.00  0.00    +0.000 NA
ENDBRANCH  26  27
ENDBRANCH  25  26
ENDBRANCH  23  25
ENDBRANCH  22  23
ENDBRANCH  21  22
ENDBRANCH   2  21
TORSDOF 11
