REMARK  Name = 
REMARK  25 active torsions:
REMARK  status: ('A' for Active; 'I' for Inactive)
REMARK    1  A    between atoms: C_2  and  CA_7
REMARK    2  A    between atoms: C_3  and  CA_15
REMARK    3  A    between atoms: C_4  and  CA_14
REMARK    4  A    between atoms: N_5  and  CA_15
REMARK    5  A    between atoms: N_6  and  CA_14
REMARK    6  A    between atoms: CA_7  and  N_10
REMARK    7  A    between atoms: CA_7  and  CB_22
REMARK    8  A    between atoms: C_8  and  CA_17
REMARK    9  A    between atoms: C_9  and  CA_27
REMARK   10  A    between atoms: C_11  and  CA_24
REMARK   11  A    between atoms: CA_12  and  C_21
REMARK   12  A    between atoms: N_13  and  CA_17
REMARK   13  A    between atoms: CA_14  and  CB_43
REMARK   14  A    between atoms: CA_15  and  CB_44
REMARK   15  A    between atoms: N_16  and  CA_27
REMARK   16  A    between atoms: CA_17  and  CB_37
REMARK   17  A    between atoms: CB_18  and  CA_24
REMARK   18  A    between atoms: CB_18  and  CG_26
REMARK   19  A    between atoms: CB_22  and  CG_23
REMARK   20  A    between atoms: CA_27  and  CB_57
REMARK   21  A    between atoms: CB_37  and  CG_45
REMARK   22  A    between atoms: NE_40  and  CD_58
REMARK   23  A    between atoms: CB_44  and  CG1_59
REMARK   24  A    between atoms: CB_57  and  CG_63
REMARK   25  A    between atoms: CD_58  and  CG_63
REMARK                            x       y       z     vdW  Elec       q    Type
REMARK                         _______ _______ _______ _____ _____    ______ ____
ROOT
ATOM      1  CA  TYR A   4      -0.710   1.464   0.000  0.00  0.00    +0.000 C 
ENDROOT
BRANCH   1   3
ATOM      2  C   VAL A   3       0.002   2.702   0.000  0.00  0.00    +0.000 C 
ATOM      3  N   TYR A   4      -0.710   2.290   0.000  0.00  0.00    +0.000 NA
ATOM      4  O   VAL A   3      -0.006   3.527   0.000  0.00  0.00    +0.000 OA
BRANCH   2   5
ATOM      5  CA  VAL A   3       0.719   2.298   0.000  0.00  0.00    +0.000 C 
BRANCH   5   6
ATOM      6  N   VAL A   3       0.723   1.473   0.000  0.00  0.00    +0.000 NA
ATOM      7  C   ARG A   2       1.302   0.890   0.000  0.00  0.00    +0.000 C 
ATOM      8  O   ARG A   2       1.302   0.065   0.000  0.00  0.00    +0.000 OA
BRANCH   7   9
ATOM      9  CA  ARG A   2       2.102   0.677   0.000  0.00  0.00    +0.000 C 
BRANCH   9  11
ATOM     10  C   ASP A   1       2.677  -0.731   0.000  0.00  0.00    +0.000 C 
ATOM     11  N   ARG A   2       2.098  -0.148   0.000  0.00  0.00    +0.000 NA
ATOM     12  O   ASP A   1       2.677  -1.556   0.000  0.00  0.00    +0.000 OA
BRANCH  10  13
ATOM     13  CA  ASP A   1       3.477  -0.944   0.000  0.00  0.00    +0.000 C 
ATOM     14  N   ASP A   1       3.473  -1.769   0.000  0.00  0.00    +0.000 NA
BRANCH  13  15
ATOM     15  CB  ASP A   1       4.190  -0.523   0.000  0.00  0.00    +0.000 C 
BRANCH  15  16
ATOM     16  CG  ASP A   1       4.902  -0.935   0.000  0.00  0.00    +0.000 C 
ATOM     17  OD1 ASP A   1       4.898  -1.760   0.000  0.00  0.00    +0.000 OA
ATOM     18  OD2 ASP A   1       5.615  -0.527   0.000  0.00  0.00    +0.000 OA
ENDBRANCH  15  16
ENDBRANCH  13  15
ENDBRANCH  10  13
ENDBRANCH   9  11
BRANCH   9  19
ATOM     19  CB  ARG A   2       2.815   1.094   0.000  0.00  0.00    +0.000 C 
BRANCH  19  20
ATOM     20  CG  ARG A   2       3.527   0.681   0.000  0.00  0.00    +0.000 C 
BRANCH  20  21
ATOM     21  CD  ARG A   2       4.240   1.102   0.000  0.00  0.00    +0.000 C 
BRANCH  21  24
ATOM     22  CZ  ARG A   2       5.665   1.102   0.000  0.00  0.00    +0.000 C 
ATOM     23  NH1 ARG A   2       5.657   1.927   0.000  0.00  0.00    +0.000 NA
ATOM     24  NE  ARG A   2       4.952   0.690   0.000  0.00  0.00    +0.000 NA
ATOM     25  NH2 ARG A   2       6.382   0.694   0.000  0.00  0.00    +0.000 NA
ENDBRANCH  21  24
ENDBRANCH  20  21
ENDBRANCH  19  20
ENDBRANCH   9  19
ENDBRANCH   7   9
ENDBRANCH   5   6
BRANCH   5  26
ATOM     26  CB  VAL A   3       1.427   2.715   0.000  0.00  0.00    +0.000 C 
ATOM     27  CG1 VAL A   3       1.423   3.540   0.000  0.00  0.00    +0.000 C 
ATOM     28  CG2 VAL A   3       2.148   2.311   0.000  0.00  0.00    +0.000 C 
ENDBRANCH   5  26
ENDBRANCH   2   5
ENDBRANCH   1   3
BRANCH   1  30
ATOM     29  N   ILE A   5      -2.135   1.456   0.000  0.00  0.00    +0.000 NA
ATOM     30  C   TYR A   4      -1.423   1.052   0.000  0.00  0.00    +0.000 C 
ATOM     31  O   TYR A   4      -1.419   0.227   0.000  0.00  0.00    +0.000 OA
BRANCH  29  32
ATOM     32  CA  ILE A   5      -2.848   1.044   0.000  0.00  0.00    +0.000 C 
BRANCH  32  33
ATOM     33  C   ILE A   5      -2.844   0.219   0.000  0.00  0.00    +0.000 C 
ATOM     34  N   HIS A   6      -3.556  -0.194   0.000  0.00  0.00    +0.000 NA
ATOM     35  O   ILE A   5      -2.127  -0.190   0.000  0.00  0.00    +0.000 OA
BRANCH  34  36
ATOM     36  CA  HIS A   6      -3.561  -1.019   0.000  0.00  0.00    +0.000 C 
BRANCH  36  38
ATOM     37  N   PRO A   7      -4.990  -1.010   0.000  0.00  0.00    +0.000 N 
ATOM     38  C   HIS A   6      -4.282  -1.423   0.000  0.00  0.00    +0.000 C 
ATOM     39  CA  PRO A   7      -5.661  -1.494   0.000  0.00  0.00    +0.000 C 
ATOM     40  O   HIS A   6      -4.285  -2.248   0.000  0.00  0.00    +0.000 OA
ATOM     41  CD  PRO A   7      -5.244  -0.223   0.000  0.00  0.00    +0.000 C 
ATOM     42  CB  PRO A   7      -6.327  -1.002   0.000  0.00  0.00    +0.000 C 
ATOM     43  CG  PRO A   7      -6.069  -0.219   0.000  0.00  0.00    +0.000 C 
BRANCH  39  44
ATOM     44  C   PRO A   7      -5.665  -2.319   0.000  0.00  0.00    +0.000 C 
ATOM     45  O   PRO A   7      -6.382  -2.727   0.000  0.00  0.00    +0.000 OA
ATOM     46  OXT PRO A   7      -4.952  -2.736   0.000  0.00  0.00    +0.000 OA
ENDBRANCH  39  44
ENDBRANCH  36  38
BRANCH  36  47
ATOM     47  CB  HIS A   6      -2.852  -1.435   0.000  0.00  0.00    +0.000 C 
BRANCH  47  49
ATOM     48  NE2 HIS A   6      -2.460  -3.540   0.000  0.00  0.00    +0.000 NA
ATOM     49  CG  HIS A   6      -2.860  -2.260   0.000  0.00  0.00    +0.000 A 
ATOM     50  ND1 HIS A   6      -3.531  -2.744   0.000  0.00  0.00    +0.000 NA
ATOM     51  CE1 HIS A   6      -3.285  -3.531   0.000  0.00  0.00    +0.000 A 
ATOM     52  CD2 HIS A   6      -2.198  -2.756   0.000  0.00  0.00    +0.000 A 
ENDBRANCH  47  49
ENDBRANCH  36  47
ENDBRANCH  34  36
ENDBRANCH  32  33
BRANCH  32  53
ATOM     53  CB  ILE A   5      -3.561   1.452   0.000  0.00  0.00    +0.000 C 
ATOM     54  CG2 ILE A   5      -3.561   2.277   0.000  0.00  0.00    +0.000 C 
BRANCH  53  55
ATOM     55  CG1 ILE A   5      -4.273   1.040   0.000  0.00  0.00    +0.000 C 
ATOM     56  CD1 ILE A   5      -4.986   1.452   0.000  0.00  0.00    +0.000 C 
ENDBRANCH  53  55
ENDBRANCH  32  53
ENDBRANCH  29  32
ENDBRANCH   1  30
BRANCH   1  57
ATOM     57  CB  TYR A   4       0.002   1.052   0.000  0.00  0.00    +0.000 C 
BRANCH  57  58
ATOM     58  CG  TYR A   4      -0.002   0.231   0.000  0.00  0.00    +0.000 A 
ATOM     59  CZ  TYR A   4      -0.002  -1.423   0.000  0.00  0.00    +0.000 A 
ATOM     60  CD1 TYR A   4      -0.715  -0.181   0.000  0.00  0.00    +0.000 A 
ATOM     61  CD2 TYR A   4       0.715  -0.181   0.000  0.00  0.00    +0.000 A 
ATOM     62  CE2 TYR A   4       0.715  -1.010   0.000  0.00  0.00    +0.000 A 
ATOM     63  CE1 TYR A   4      -0.715  -1.010   0.000  0.00  0.00    +0.000 A 
ATOM     64  OH  TYR A   4      -0.002  -2.248   0.000  0.00  0.00    +0.000 OA
ENDBRANCH  57  58
ENDBRANCH   1  57
TORSDOF 25
