REMARK  Name = 
REMARK  4 active torsions:
REMARK  status: ('A' for Active; 'I' for Inactive)
REMARK    1  A    between atoms: C_6  and  C_8
REMARK    2  A    between atoms: C_8  and  C_10
REMARK    3  A    between atoms: C_19  and  C_21
REMARK    4  A    between atoms: C_21  and  C_23
REMARK                            x       y       z     vdW  Elec       q    Type
REMARK                         _______ _______ _______ _____ _____    ______ ____
ROOT
ATOM      1 ZN   UNL     1       3.938   0.491   0.000  0.00  0.00    +0.000 Zn
ENDROOT
TORSDOF 0
REMARK  Name = 
REMARK  4 active torsions:
REMARK  status: ('A' for Active; 'I' for Inactive)
REMARK    1  A    between atoms: C_6  and  C_8
REMARK    2  A    between atoms: C_8  and  C_10
REMARK    3  A    between atoms: C_19  and  C_21
REMARK    4  A    between atoms: C_21  and  C_23
REMARK                            x       y       z     vdW  Elec       q    Type
REMARK                         _______ _______ _______ _____ _____    ______ ____
ROOT
ATOM      1  C   UNL     1      -2.870  -0.629   0.000  0.00  0.00    +0.000 C 
ATOM      2  O   UNL     1      -3.333  -1.337   0.000  0.00  0.00    +0.000 OA
ATOM      3  C   UNL     1      -2.040  -0.629   0.000  0.00  0.00    +0.000 C 
ATOM      4  O   UNL     1      -1.531  -1.282   0.000  0.00  0.00    +0.000 OA
ATOM      5  C   UNL     1      -1.804   0.164   0.000  0.00  0.00    +0.000 C 
ATOM      6  O   UNL     1      -2.492   0.628   0.000  0.00  0.00    +0.000 OA
ATOM      7  C   UNL     1      -3.140   0.124   0.000  0.00  0.00    +0.000 C 
ATOM      8  O   UNL     1      -3.938   0.360   0.000  0.00  0.00    +0.000 OA
ENDROOT
BRANCH   5   9
ATOM      9  C   UNL     1      -1.026   0.439   0.000  0.00  0.00    +0.000 C 
ATOM     10  O   UNL     1      -1.026   1.337   0.000  0.00  0.00    +0.000 OA
BRANCH   9  11
ATOM     11  C   UNL     1      -0.387   0.021   0.000  0.00  0.00    +0.000 C 
ATOM     12  O   UNL     1       0.305   0.394   0.000  0.00  0.00    +0.000 OA
ENDBRANCH   9  11
ENDBRANCH   5   9
TORSDOF 2
REMARK  Name = 
REMARK  4 active torsions:
REMARK  status: ('A' for Active; 'I' for Inactive)
REMARK    1  A    between atoms: C_6  and  C_8
REMARK    2  A    between atoms: C_8  and  C_10
REMARK    3  A    between atoms: C_19  and  C_21
REMARK    4  A    between atoms: C_21  and  C_23
REMARK                            x       y       z     vdW  Elec       q    Type
REMARK                         _______ _______ _______ _____ _____    ______ ____
ROOT
ATOM      1  C   UNL     1      -2.870  -0.629   0.000  0.00  0.00    +0.000 C 
ATOM      2  O   UNL     1      -3.333  -1.337   0.000  0.00  0.00    +0.000 OA
ATOM      3  C   UNL     1      -2.040  -0.629   0.000  0.00  0.00    +0.000 C 
ATOM      4  O   UNL     1      -1.531  -1.282   0.000  0.00  0.00    +0.000 OA
ATOM      5  C   UNL     1      -1.804   0.164   0.000  0.00  0.00    +0.000 C 
ATOM      6  O   UNL     1      -2.492   0.628   0.000  0.00  0.00    +0.000 OA
ATOM      7  C   UNL     1      -3.140   0.124   0.000  0.00  0.00    +0.000 C 
ATOM      8  O   UNL     1      -3.938   0.360   0.000  0.00  0.00    +0.000 OA
ENDROOT
BRANCH   5   9
ATOM      9  C   UNL     1      -1.026   0.439   0.000  0.00  0.00    +0.000 C 
ATOM     10  O   UNL     1      -1.026   1.337   0.000  0.00  0.00    +0.000 OA
BRANCH   9  11
ATOM     11  C   UNL     1      -0.387   0.021   0.000  0.00  0.00    +0.000 C 
ATOM     12  O   UNL     1       0.305   0.394   0.000  0.00  0.00    +0.000 OA
ENDBRANCH   9  11
ENDBRANCH   5   9
TORSDOF 2
