REMARK  Name = 
REMARK  6 active torsions:
REMARK  status: ('A' for Active; 'I' for Inactive)
REMARK    1  A    between atoms: N_9  and  C_14
REMARK    2  A    between atoms: C_14  and  C_15
REMARK    3  A    between atoms: C_15  and  C_16
REMARK    4  A    between atoms: C_16  and  C_17
REMARK    5  A    between atoms: C_17  and  N_18
REMARK    6  A    between atoms: C_21  and  C_24
REMARK                            x       y       z     vdW  Elec       q    Type
REMARK                         _______ _______ _______ _____ _____    ______ ____
ROOT
ATOM      1  C   UNL     1       2.254   1.341   0.000  0.00  0.00    +0.000 C 
ENDROOT
BRANCH   1   2
ATOM      2  C   UNL     1       2.555   0.573   0.000  0.00  0.00    +0.000 C 
BRANCH   2  11
ATOM      3  C   UNL     1      -0.837  -0.403   0.000  0.00  0.00    +0.000 A 
ATOM      4  C   UNL     1      -0.837  -1.228   0.000  0.00  0.00    +0.000 A 
ATOM      5  C   UNL     1      -0.123  -1.641   0.000  0.00  0.00    +0.000 A 
ATOM      6  C   UNL     1       0.592  -1.228   0.000  0.00  0.00    +0.000 A 
ATOM      7  C   UNL     1       0.592  -0.403   0.000  0.00  0.00    +0.000 A 
ATOM      8  C   UNL     1      -0.123   0.009   0.000  0.00  0.00    +0.000 A 
ATOM      9  C   UNL     1       1.236   0.111   0.000  0.00  0.00    +0.000 C 
ATOM     10  O   UNL     1       1.053   0.915   0.000  0.00  0.00    +0.000 OA
ATOM     11  N   UNL     1       2.041  -0.072   0.000  0.00  0.00    +0.000 N 
ATOM     12  C   UNL     1       2.399  -0.816   0.000  0.00  0.00    +0.000 C 
ATOM     13  C   UNL     1       2.041  -1.559   0.000  0.00  0.00    +0.000 C 
ATOM     14  O   UNL     1       1.236  -1.743   0.000  0.00  0.00    +0.000 OA
ATOM     15 CL   UNL     1       3.224  -0.816   0.000  0.00  0.00    +0.000 Cl
ENDBRANCH   2  11
ENDBRANCH   1   2
BRANCH   1  16
ATOM     16  C   UNL     1       2.768   1.986   0.000  0.00  0.00    +0.000 C 
BRANCH  16  17
ATOM     17  C   UNL     1       2.467   2.753   0.000  0.00  0.00    +0.000 C 
BRANCH  17  18
ATOM     18  N   UNL     1       2.981   3.398   0.000  0.00  0.00    +0.000 NA
ATOM     19  C   UNL     1       2.680   4.167   0.000  0.00  0.00    +0.000 C 
ATOM     20  C   UNL     1       3.194   4.811   0.000  0.00  0.00    +0.000 C 
ATOM     21  C   UNL     1       4.010   4.689   0.000  0.00  0.00    +0.000 C 
ATOM     22  C   UNL     1       4.311   3.921   0.000  0.00  0.00    +0.000 C 
ATOM     23  C   UNL     1       3.797   3.276   0.000  0.00  0.00    +0.000 C 
BRANCH  21  24
ATOM     24  C   UNL     1       4.524   5.333   0.000  0.00  0.00    +0.000 A 
ATOM     25  C   UNL     1       4.223   6.101   0.000  0.00  0.00    +0.000 A 
ATOM     26  C   UNL     1       4.737   6.747   0.000  0.00  0.00    +0.000 A 
ATOM     27  C   UNL     1       5.553   6.623   0.000  0.00  0.00    +0.000 A 
ATOM     28  C   UNL     1       5.854   5.856   0.000  0.00  0.00    +0.000 A 
ATOM     29  N   UNL     1       5.340   5.211   0.000  0.00  0.00    +0.000 NA
ENDBRANCH  21  24
ENDBRANCH  17  18
ENDBRANCH  16  17
ENDBRANCH   1  16
TORSDOF 6
