REMARK  Name = 
REMARK  26 active torsions:
REMARK  status: ('A' for Active; 'I' for Inactive)
REMARK    1  A    between atoms: N_1  and  CA_2
REMARK    2  A    between atoms: CA_2  and  CB_3
REMARK    3  A    between atoms: CA_2  and  C_11
REMARK    4  A    between atoms: CB_3  and  CG_4
REMARK    5  A    between atoms: N_13  and  CA_14
REMARK    6  A    between atoms: CA_14  and  C_15
REMARK    7  A    between atoms: CA_14  and  CB_41
REMARK    8  A    between atoms: N_16  and  CA_17
REMARK    9  A    between atoms: CA_17  and  C_18
REMARK   10  A    between atoms: CA_17  and  CB_33
REMARK   11  A    between atoms: CA_21  and  C_22
REMARK   12  A    between atoms: N_23  and  CA_24
REMARK   13  A    between atoms: CA_24  and  C_25
REMARK   14  A    between atoms: CB_33  and  CG_34
REMARK   15  A    between atoms: CB_41  and  CG1_43
REMARK   16  A    between atoms: C_45  and  CA_47
REMARK   17  A    between atoms: CA_47  and  N_48
REMARK   18  A    between atoms: CA_47  and  CB_65
REMARK   19  A    between atoms: C_49  and  CA_51
REMARK   20  A    between atoms: CA_51  and  N_52
REMARK   21  A    between atoms: CA_51  and  CB_58
REMARK   22  A    between atoms: C_53  and  C_55
REMARK   23  A    between atoms: C_55  and  N_56
REMARK   24  A    between atoms: CB_58  and  CG_59
REMARK   25  A    between atoms: CG_59  and  CD_60
REMARK   26  A    between atoms: CD_60  and  NE_61
REMARK                            x       y       z     vdW  Elec       q    Type
REMARK                         _______ _______ _______ _____ _____    ______ ____
ROOT
ATOM      1  CA  ARG A   1       1.335   1.019   0.000  0.00  0.00    +0.000 C 
ENDROOT
BRANCH   1   2
ATOM      2  C   ARG A   1       0.629   0.592   0.000  0.00  0.00    +0.000 C 
ATOM      3  O   ARG A   1       0.646  -0.232   0.000  0.00  0.00    +0.000 OA
ATOM      4  N   ILE A   2      -0.093   0.991   0.000  0.00  0.00    +0.000 NA
BRANCH   4   5
ATOM      5  CA  ILE A   2      -0.799   0.564   0.000  0.00  0.00    +0.000 C 
BRANCH   5   6
ATOM      6  C   ILE A   2      -0.783  -0.261   0.000  0.00  0.00    +0.000 C 
ATOM      7  N   HIS A   3      -1.489  -0.688   0.000  0.00  0.00    +0.000 NA
ATOM      8  O   ILE A   2      -0.060  -0.659   0.000  0.00  0.00    +0.000 OA
BRANCH   7   9
ATOM      9  CA  HIS A   3      -1.473  -1.513   0.000  0.00  0.00    +0.000 C 
BRANCH   9  10
ATOM     10  C   HIS A   3      -2.179  -1.939   0.000  0.00  0.00    +0.000 C 
ATOM     11  O   HIS A   3      -2.162  -2.764   0.000  0.00  0.00    +0.000 OA
ATOM     12  N   PRO A   4      -2.901  -1.541   0.000  0.00  0.00    +0.000 N 
ATOM     13  CA  PRO A   4      -3.648  -1.892   0.000  0.00  0.00    +0.000 C 
ATOM     14  CB  PRO A   4      -4.212  -1.290   0.000  0.00  0.00    +0.000 C 
ATOM     15  CG  PRO A   4      -3.814  -0.567   0.000  0.00  0.00    +0.000 C 
ATOM     16  CD  PRO A   4      -3.004  -0.723   0.000  0.00  0.00    +0.000 C 
BRANCH  13  17
ATOM     17  C   PRO A   4      -3.804  -2.702   0.000  0.00  0.00    +0.000 C 
ATOM     18  N   ALA A   5      -4.583  -2.973   0.000  0.00  0.00    +0.000 NA
ATOM     19  O   PRO A   4      -3.180  -3.242   0.000  0.00  0.00    +0.000 OA
BRANCH  18  20
ATOM     20  CA  ALA A   5      -5.207  -2.433   0.000  0.00  0.00    +0.000 C 
ATOM     21  CB  ALA A   5      -5.052  -1.623   0.000  0.00  0.00    +0.000 C 
BRANCH  20  22
ATOM     22  C   ALA A   5      -5.987  -2.704   0.000  0.00  0.00    +0.000 C 
ATOM     23  O   ALA A   5      -6.611  -2.164   0.000  0.00  0.00    +0.000 OA
ATOM     24  OXT ALA A   5      -6.142  -3.514   0.000  0.00  0.00    +0.000 OA
ENDBRANCH  20  22
ENDBRANCH  18  20
ENDBRANCH  13  17
ENDBRANCH   9  10
BRANCH   9  25
ATOM     25  CB  HIS A   3      -0.750  -1.911   0.000  0.00  0.00    +0.000 C 
BRANCH  25  26
ATOM     26  CG  HIS A   3      -0.734  -2.736   0.000  0.00  0.00    +0.000 A 
ATOM     27  CD2 HIS A   3      -0.057  -3.207   0.000  0.00  0.00    +0.000 A 
ATOM     28  NE2 HIS A   3      -0.296  -3.997   0.000  0.00  0.00    +0.000 NA
ATOM     29  CE1 HIS A   3      -1.121  -4.013   0.000  0.00  0.00    +0.000 A 
ATOM     30  ND1 HIS A   3      -1.391  -3.234   0.000  0.00  0.00    +0.000 NA
ENDBRANCH  25  26
ENDBRANCH   9  25
ENDBRANCH   7   9
ENDBRANCH   5   6
BRANCH   5  31
ATOM     31  CB  ILE A   2      -1.522   0.962   0.000  0.00  0.00    +0.000 C 
ATOM     32  CG2 ILE A   2      -1.539   1.787   0.000  0.00  0.00    +0.000 C 
BRANCH  31  33
ATOM     33  CG1 ILE A   2      -2.228   0.535   0.000  0.00  0.00    +0.000 C 
ATOM     34  CD1 ILE A   2      -2.951   0.933   0.000  0.00  0.00    +0.000 C 
ENDBRANCH  31  33
ENDBRANCH   5  31
ENDBRANCH   4   5
ENDBRANCH   1   2
BRANCH   1  35
ATOM     35  N   ARG A   1       1.319   1.844   0.000  0.00  0.00    +0.000 NA
ATOM     36  C   ARG A   1       2.025   2.271   0.000  0.00  0.00    +0.000 C 
ATOM     37  O   ARG A   1       2.008   3.096   0.000  0.00  0.00    +0.000 OA
BRANCH  36  38
ATOM     38  CA  ARG A   1       2.748   1.873   0.000  0.00  0.00    +0.000 C 
BRANCH  38  39
ATOM     39  CB  ARG A   1       3.701   2.449   0.000  0.00  0.00    +0.000 C 
ATOM     40  CG1 ARG A   1       4.423   2.050   0.000  0.00  0.00    +0.000 C 
ATOM     41  CG2 ARG A   1       3.684   3.273   0.000  0.00  0.00    +0.000 C 
ENDBRANCH  38  39
BRANCH  38  42
ATOM     42  N   ARG A   1       2.777   0.369   0.000  0.00  0.00    +0.000 NA
ATOM     43  C   ARG A   1       3.753  -0.168   0.000  0.00  0.00    +0.000 C 
ATOM     44  O   ARG A   1       3.770  -0.993   0.000  0.00  0.00    +0.000 OA
BRANCH  43  45
ATOM     45  CA  ARG A   1       4.459   0.258   0.000  0.00  0.00    +0.000 C 
BRANCH  45  46
ATOM     46  N   ARG A   1       5.182  -0.140   0.000  0.00  0.00    +0.000 NA
ATOM     47  C   UNK A   0       5.888   0.287   0.000  0.00  0.00    +0.000 C 
ATOM     48  O   UNK A   0       6.611  -0.111   0.000  0.00  0.00    +0.000 OA
BRANCH  47  49
ATOM     49  C   UNK A   0       5.871   1.112   0.000  0.00  0.00    +0.000 C 
BRANCH  49  50
ATOM     50  N   UNK A   0       6.577   1.539   0.000  0.00  0.00    +0.000 NA
ATOM     51  C   UNK A   0       6.561   2.364   0.000  0.00  0.00    +0.000 C 
ENDBRANCH  49  50
ENDBRANCH  47  49
ENDBRANCH  45  46
BRANCH  45  52
ATOM     52  CB  ARG A   1       4.443   1.083   0.000  0.00  0.00    +0.000 C 
BRANCH  52  53
ATOM     53  CG  ARG A   1       5.149   1.510   0.000  0.00  0.00    +0.000 C 
BRANCH  53  54
ATOM     54  CD  ARG A   1       5.132   2.335   0.000  0.00  0.00    +0.000 C 
BRANCH  54  55
ATOM     55  NE  ARG A   1       5.838   2.762   0.000  0.00  0.00    +0.000 NA
ATOM     56  CZ  ARG A   1       5.822   3.587   0.000  0.00  0.00    +0.000 C 
ATOM     57  NH1 ARG A   1       5.099   3.985   0.000  0.00  0.00    +0.000 NA
ATOM     58  NH2 ARG A   1       6.528   4.013   0.000  0.00  0.00    +0.000 NA
ENDBRANCH  54  55
ENDBRANCH  53  54
ENDBRANCH  52  53
ENDBRANCH  45  52
ENDBRANCH  43  45
ENDBRANCH  38  42
ENDBRANCH  36  38
ENDBRANCH   1  35
BRANCH   1  59
ATOM     59  CB  ARG A   1       2.058   0.621   0.000  0.00  0.00    +0.000 C 
BRANCH  59  60
ATOM     60  CG  ARG A   1       2.074  -0.204   0.000  0.00  0.00    +0.000 A 
ATOM     61  CD1 ARG A   1       1.368  -0.631   0.000  0.00  0.00    +0.000 A 
ATOM     62  CE1 ARG A   1       1.385  -1.455   0.000  0.00  0.00    +0.000 A 
ATOM     63  CZ  ARG A   1       2.107  -1.854   0.000  0.00  0.00    +0.000 A 
ATOM     64  OH  ARG A   1       2.124  -2.679   0.000  0.00  0.00    +0.000 OA
ATOM     65  CE2 ARG A   1       2.813  -1.427   0.000  0.00  0.00    +0.000 A 
ATOM     66  CD2 ARG A   1       2.797  -0.602   0.000  0.00  0.00    +0.000 A 
ENDBRANCH  59  60
ENDBRANCH   1  59
TORSDOF 26
