REMARK  Name = 
REMARK  8 active torsions:
REMARK  status: ('A' for Active; 'I' for Inactive)
REMARK    1  A    between atoms: C_1  and  C_2
REMARK    2  A    between atoms: C_1  and  C_3
REMARK    3  A    between atoms: C_3  and  O_8
REMARK    4  A    between atoms: O_8  and  C_14
REMARK    5  A    between atoms: C_14  and  C_16
REMARK    6  A    between atoms: C_16  and  N_17
REMARK    7  A    between atoms: N_17  and  C_18
REMARK    8  A    between atoms: N_17  and  C_19
REMARK                            x       y       z     vdW  Elec       q    Type
REMARK                         _______ _______ _______ _____ _____    ______ ____
ROOT
ATOM      1  C   UNL     1      -1.742  -0.453   0.000  0.00  0.00    +0.000 C 
ATOM      2  C   UNL     1      -1.244  -1.117   0.000  0.00  0.00    +0.000 C 
ATOM      3  C   UNL     1      -2.530  -0.722   0.000  0.00  0.00    +0.000 C 
ATOM      4  C   UNL     1      -1.722  -1.788   0.000  0.00  0.00    +0.000 C 
ATOM      5  C   UNL     1      -2.511  -1.545   0.000  0.00  0.00    +0.000 C 
ENDROOT
BRANCH   1   6
ATOM      6  C   UNL     1      -2.102   0.287   0.000  0.00  0.00    +0.000 A 
ATOM      7  C   UNL     1      -1.614   0.971   0.000  0.00  0.00    +0.000 A 
ATOM      8  C   UNL     1      -2.910   0.370   0.000  0.00  0.00    +0.000 A 
ATOM      9  C   UNL     1      -1.962   1.711   0.000  0.00  0.00    +0.000 A 
ATOM     10  C   UNL     1      -3.258   1.111   0.000  0.00  0.00    +0.000 A 
ATOM     11  C   UNL     1      -2.795   1.788   0.000  0.00  0.00    +0.000 A 
ENDBRANCH   1   6
BRANCH   1  12
ATOM     12  C   UNL     1      -1.036  -0.016   0.000  0.00  0.00    +0.000 C 
ATOM     13  O   UNL     1      -1.049   0.798   0.000  0.00  0.00    +0.000 OA
BRANCH  12  14
ATOM     14  O   UNL     1      -0.308  -0.434   0.000  0.00  0.00    +0.000 OA
BRANCH  14  15
ATOM     15  C   UNL     1       0.388   0.000   0.000  0.00  0.00    +0.000 C 
BRANCH  15  16
ATOM     16  C   UNL     1       1.113  -0.405   0.000  0.00  0.00    +0.000 C 
BRANCH  16  17
ATOM     17  N   UNL     1       1.834   0.019   0.000  0.00  0.00    +0.000 NA
BRANCH  17  18
ATOM     18  C   UNL     1       1.806   0.843   0.000  0.00  0.00    +0.000 C 
ATOM     19  C   UNL     1       2.527   1.268   0.000  0.00  0.00    +0.000 C 
ENDBRANCH  17  18
BRANCH  17  20
ATOM     20  C   UNL     1       2.546  -0.377   0.000  0.00  0.00    +0.000 C 
ATOM     21  C   UNL     1       3.258   0.045   0.000  0.00  0.00    +0.000 C 
ENDBRANCH  17  20
ENDBRANCH  16  17
ENDBRANCH  15  16
ENDBRANCH  14  15
ENDBRANCH  12  14
ENDBRANCH   1  12
TORSDOF 8
