REMARK  Name = 
REMARK  8 active torsions:
REMARK  status: ('A' for Active; 'I' for Inactive)
REMARK    1  A    between atoms: N_8  and  C_9
REMARK    2  A    between atoms: C_11  and  C_28
REMARK    3  A    between atoms: O_16  and  P_18
REMARK    4  A    between atoms: O_16  and  C_28
REMARK    5  A    between atoms: P_18  and  O_20
REMARK    6  A    between atoms: O_20  and  P_22
REMARK    7  A    between atoms: P_22  and  N_32
REMARK    8  A    between atoms: P_26  and  N_32
REMARK                            x       y       z     vdW  Elec       q    Type
REMARK                         _______ _______ _______ _____ _____    ______ ____
ROOT
ATOM      1  C   UNL     1       1.957   0.127   0.000  0.00  0.00    +0.000 C 
ATOM      2  O   UNL     1       1.472  -0.540   0.000  0.00  0.00    +0.000 OA
ATOM      3  C   UNL     1       1.957  -1.208   0.000  0.00  0.00    +0.000 C 
ATOM      4  C   UNL     1       2.742  -0.953   0.000  0.00  0.00    +0.000 C 
ATOM      5  O   UNL     1       3.409  -1.438   0.000  0.00  0.00    +0.000 OA
ATOM      6  C   UNL     1       2.742  -0.128   0.000  0.00  0.00    +0.000 C 
ATOM      7  O   UNL     1       3.409   0.357   0.000  0.00  0.00    +0.000 OA
ENDROOT
BRANCH   1  15
ATOM      8  C   UNL     1       0.203   2.405   0.000  0.00  0.00    +0.000 A 
ATOM      9  N   UNL     1      -0.511   1.992   0.000  0.00  0.00    +0.000 NA
ATOM     10  N   UNL     1       0.203   0.755   0.000  0.00  0.00    +0.000 NA
ATOM     11  C   UNL     1       0.918   1.167   0.000  0.00  0.00    +0.000 A 
ATOM     12  C   UNL     1       0.918   1.992   0.000  0.00  0.00    +0.000 A 
ATOM     13  N   UNL     1       1.702   2.247   0.000  0.00  0.00    +0.000 NA
ATOM     14  C   UNL     1       2.187   1.579   0.000  0.00  0.00    +0.000 A 
ATOM     15  N   UNL     1       1.702   0.912   0.000  0.00  0.00    +0.000 N 
ATOM     16  C   UNL     1      -0.511   1.167   0.000  0.00  0.00    +0.000 A 
ATOM     17  N   UNL     1      -1.226   0.755   0.000  0.00  0.00    +0.000 NA
ATOM     18  O   UNL     1       0.203   3.230   0.000  0.00  0.00    +0.000 OA
ENDBRANCH   1  15
BRANCH   3  19
ATOM     19  C   UNL     1       1.702  -1.992   0.000  0.00  0.00    +0.000 C 
BRANCH  19  20
ATOM     20  O   UNL     1       0.877  -1.992   0.000  0.00  0.00    +0.000 OA
BRANCH  20  22
ATOM     21  O   UNL     1       0.163  -3.230   0.000  0.00  0.00    +0.000 OA
ATOM     22  P   UNL     1       0.163  -2.405   0.000  0.00  0.00    +0.000 P 
ATOM     23  O   UNL     1       0.163  -1.580   0.000  0.00  0.00    +0.000 OA
BRANCH  22  24
ATOM     24  O   UNL     1      -0.551  -1.992   0.000  0.00  0.00    +0.000 OA
BRANCH  24  26
ATOM     25  O   UNL     1      -1.266  -3.230   0.000  0.00  0.00    +0.000 OA
ATOM     26  P   UNL     1      -1.266  -2.405   0.000  0.00  0.00    +0.000 P 
ATOM     27  O   UNL     1      -1.266  -1.560   0.000  0.00  0.00    +0.000 OA
BRANCH  26  28
ATOM     28  N   UNL     1      -1.980  -1.992   0.000  0.00  0.00    +0.000 NA
BRANCH  28  31
ATOM     29  O   UNL     1      -2.695  -3.230   0.000  0.00  0.00    +0.000 OA
ATOM     30  O   UNL     1      -3.409  -1.992   0.000  0.00  0.00    +0.000 OA
ATOM     31  P   UNL     1      -2.695  -2.405   0.000  0.00  0.00    +0.000 P 
ATOM     32  O   UNL     1      -2.695  -1.580   0.000  0.00  0.00    +0.000 OA
ENDBRANCH  28  31
ENDBRANCH  26  28
ENDBRANCH  24  26
ENDBRANCH  22  24
ENDBRANCH  20  22
ENDBRANCH  19  20
ENDBRANCH   3  19
TORSDOF 8
