REMARK  Name = 
REMARK  9 active torsions:
REMARK  status: ('A' for Active; 'I' for Inactive)
REMARK    1  A    between atoms: O_5  and  C_19
REMARK    2  A    between atoms: O_5  and  C_21
REMARK    3  A    between atoms: O_8  and  C_27
REMARK    4  A    between atoms: O_8  and  C_30
REMARK    5  A    between atoms: O_9  and  C_33
REMARK    6  A    between atoms: O_9  and  C_38
REMARK    7  A    between atoms: N_12  and  C_17
REMARK    8  A    between atoms: N_13  and  C_22
REMARK    9  A    between atoms: C_14  and  C_19
REMARK                            x       y       z     vdW  Elec       q    Type
REMARK                         _______ _______ _______ _____ _____    ______ ____
ROOT
ATOM      1  C   UNL     1      -1.025  -1.139   0.000  0.00  0.00    +0.000 A 
ATOM      2  C   UNL     1      -0.664   0.471   0.000  0.00  0.00    +0.000 A 
ATOM      3  C   UNL     1      -1.632  -0.580   0.000  0.00  0.00    +0.000 A 
ATOM      4  C   UNL     1      -0.238  -0.893   0.000  0.00  0.00    +0.000 A 
ATOM      5  C   UNL     1      -1.452   0.225   0.000  0.00  0.00    +0.000 A 
ATOM      6  C   UNL     1      -0.057  -0.088   0.000  0.00  0.00    +0.000 A 
ENDROOT
BRANCH   2   7
ATOM      7  N   UNL     1      -0.484   1.276   0.000  0.00  0.00    +0.000 N 
ATOM      8  C   UNL     1      -0.120   2.886   0.000  0.00  0.00    +0.000 C 
ATOM      9  C   UNL     1      -1.090   1.836   0.000  0.00  0.00    +0.000 C 
ATOM     10  C   UNL     1       0.304   1.521   0.000  0.00  0.00    +0.000 C 
ATOM     11  C   UNL     1      -0.908   2.641   0.000  0.00  0.00    +0.000 C 
ATOM     12  C   UNL     1       0.485   2.326   0.000  0.00  0.00    +0.000 C 
BRANCH   8  13
ATOM     13  O   UNL     1       0.063   3.691   0.000  0.00  0.00    +0.000 OA
BRANCH  13  14
ATOM     14  C   UNL     1       0.851   3.935   0.000  0.00  0.00    +0.000 A 
ATOM     15  C   UNL     1       2.429   4.419   0.000  0.00  0.00    +0.000 A 
ATOM     16  C   UNL     1       1.036   4.739   0.000  0.00  0.00    +0.000 A 
ATOM     17  C   UNL     1       1.456   3.373   0.000  0.00  0.00    +0.000 A 
ATOM     18  C   UNL     1       1.825   4.981   0.000  0.00  0.00    +0.000 A 
ATOM     19  C   UNL     1       2.244   3.615   0.000  0.00  0.00    +0.000 A 
BRANCH  15  20
ATOM     20  O   UNL     1       3.218   4.660   0.000  0.00  0.00    +0.000 OA
BRANCH  20  24
ATOM     21  F   UNL     1       4.453   4.290   0.000  0.00  0.00    +0.000 F 
ATOM     22  F   UNL     1       3.673   3.454   0.000  0.00  0.00    +0.000 F 
ATOM     23  F   UNL     1       4.304   3.647   0.000  0.00  0.00    +0.000 F 
ATOM     24  C   UNL     1       3.822   4.097   0.000  0.00  0.00    +0.000 C 
ENDBRANCH  20  24
ENDBRANCH  15  20
ENDBRANCH  13  14
ENDBRANCH   8  13
ENDBRANCH   2   7
BRANCH   1  25
ATOM     25  O   UNL     1      -1.204  -1.945   0.000  0.00  0.00    +0.000 OA
BRANCH  25  26
ATOM     26  C   UNL     1      -0.596  -2.503   0.000  0.00  0.00    +0.000 C 
BRANCH  26  30
ATOM     27  O   UNL     1      -1.425  -2.806   0.000  0.00  0.00    +0.000 OA
ATOM     28  N   UNL     1      -1.847  -4.069   0.000  0.00  0.00    +0.000 N 
ATOM     29  N   UNL     1      -2.922  -3.271   0.000  0.00  0.00    +0.000 NA
ATOM     30  C   UNL     1      -0.760  -3.304   0.000  0.00  0.00    +0.000 C 
ATOM     31  C   UNL     1      -2.102  -3.293   0.000  0.00  0.00    +0.000 A 
ATOM     32  C   UNL     1      -1.015  -4.080   0.000  0.00  0.00    +0.000 C 
ATOM     33  C   UNL     1      -3.177  -4.069   0.000  0.00  0.00    +0.000 A 
ATOM     34  C   UNL     1      -2.512  -4.546   0.000  0.00  0.00    +0.000 A 
ATOM     35  C   UNL     1      -0.281  -3.758   0.000  0.00  0.00    +0.000 C 
BRANCH  33  38
ATOM     36  O   UNL     1      -4.453  -3.898   0.000  0.00  0.00    +0.000 OA
ATOM     37  O   UNL     1      -4.087  -4.981   0.000  0.00  0.00    +0.000 OA
ATOM     38  N   UNL     1      -3.957  -4.334   0.000  0.00  0.00    +0.000 N 
ENDBRANCH  33  38
ENDBRANCH  26  30
ENDBRANCH  25  26
ENDBRANCH   1  25
TORSDOF 9
