REMARK  Name = 
REMARK  1 active torsions:
REMARK  status: ('A' for Active; 'I' for Inactive)
REMARK    1  A    between atoms: C_2  and  C_8
REMARK                            x       y       z     vdW  Elec       q    Type
REMARK                         _______ _______ _______ _____ _____    ______ ____
ROOT
ATOM      1  C   UNL     1       0.333   0.825   0.000  0.00  0.00    +0.000 A 
ATOM      2  C   UNL     1       1.047   0.412   0.000  0.00  0.00    +0.000 A 
ATOM      3  C   UNL     1       0.333  -0.825   0.000  0.00  0.00    +0.000 A 
ATOM      4  C   UNL     1      -0.382  -0.412   0.000  0.00  0.00    +0.000 A 
ATOM      5  C   UNL     1      -0.382   0.412   0.000  0.00  0.00    +0.000 A 
ATOM      6  C   UNL     1       1.047  -0.412   0.000  0.00  0.00    +0.000 A 
ATOM      7  O   UNL     1      -1.166  -0.667   0.000  0.00  0.00    +0.000 OA
ATOM      8  O   UNL     1      -1.166   0.667   0.000  0.00  0.00    +0.000 OA
ATOM      9 BI   UNL     1      -1.651   0.000   0.000  0.00  0.00    +0.000 Bi
ATOM     10  O   UNL     1      -2.476   0.000   0.000  0.00  0.00    +0.000 OA
ATOM     11  O   UNL     1       0.333  -1.650   0.000  0.00  0.00    +0.000 OA
ENDROOT
BRANCH   2  13
ATOM     12  O   UNL     1       1.762   1.650   0.000  0.00  0.00    +0.000 OA
ATOM     13  C   UNL     1       1.762   0.825   0.000  0.00  0.00    +0.000 C 
ATOM     14  O   UNL     1       2.476   0.412   0.000  0.00  0.00    +0.000 OA
ENDBRANCH   2  13
TORSDOF 1
