REMARK  Name = 
REMARK  14 active torsions:
REMARK  status: ('A' for Active; 'I' for Inactive)
REMARK    1  A    between atoms: P_1  and  O_8
REMARK    2  A    between atoms: P_2  and  O_11
REMARK    3  A    between atoms: P_2  and  O_14
REMARK    4  A    between atoms: P_3  and  O_13
REMARK    5  A    between atoms: P_3  and  O_14
REMARK    6  A    between atoms: O_8  and  C_34
REMARK    7  A    between atoms: O_11  and  C_40
REMARK    8  A    between atoms: O_13  and  C_43
REMARK    9  A    between atoms: N_23  and  C_30
REMARK   10  A    between atoms: N_24  and  C_36
REMARK   11  A    between atoms: N_29  and  C_49
REMARK   12  A    between atoms: C_33  and  C_40
REMARK   13  A    between atoms: C_37  and  C_43
REMARK   14  A    between atoms: C_44  and  C_47
REMARK                            x       y       z     vdW  Elec       q    Type
REMARK                         _______ _______ _______ _____ _____    ______ ____
ROOT
ATOM      1  P   UNL     1      -1.429   1.341   0.000  0.00  0.00    +0.000 P 
ATOM      2  O   UNL     1      -0.945   0.673   0.000  0.00  0.00    +0.000 OA
ATOM      3  O   UNL     1      -1.912   2.010   0.000  0.00  0.00    +0.000 OA
ENDROOT
BRANCH   1   4
ATOM      4  O   UNL     1      -0.760   1.825   0.000  0.00  0.00    +0.000 OA
BRANCH   4   5
ATOM      5  P   UNL     1      -0.007   1.488   0.000  0.00  0.00    +0.000 P 
ATOM      6  O   UNL     1       0.330   2.241   0.000  0.00  0.00    +0.000 OA
ATOM      7  O   UNL     1      -0.344   0.735   0.000  0.00  0.00    +0.000 OA
BRANCH   5   8
ATOM      8  O   UNL     1       0.746   1.151   0.000  0.00  0.00    +0.000 OA
BRANCH   8   9
ATOM      9  C   UNL     1       1.414   1.635   0.000  0.00  0.00    +0.000 C 
BRANCH   9  16
ATOM     10  O   UNL     1       2.882   1.710   0.000  0.00  0.00    +0.000 OA
ATOM     11  O   UNL     1       3.569  -0.312   0.000  0.00  0.00    +0.000 OA
ATOM     12  O   UNL     1       1.784  -0.121   0.000  0.00  0.00    +0.000 OA
ATOM     13  C   UNL     1       3.494   1.157   0.000  0.00  0.00    +0.000 C 
ATOM     14  C   UNL     1       3.158   0.404   0.000  0.00  0.00    +0.000 C 
ATOM     15  C   UNL     1       2.337   0.491   0.000  0.00  0.00    +0.000 C 
ATOM     16  C   UNL     1       2.167   1.298   0.000  0.00  0.00    +0.000 C 
BRANCH  13  19
ATOM     17  O   UNL     1       4.596  -0.071   0.000  0.00  0.00    +0.000 OA
ATOM     18  O   UNL     1       6.211   0.269   0.000  0.00  0.00    +0.000 OA
ATOM     19  N   UNL     1       4.302   1.327   0.000  0.00  0.00    +0.000 N 
ATOM     20  C   UNL     1       4.853   0.713   0.000  0.00  0.00    +0.000 C 
ATOM     21  C   UNL     1       5.660   0.883   0.000  0.00  0.00    +0.000 C 
ATOM     22  C   UNL     1       4.558   2.111   0.000  0.00  0.00    +0.000 C 
ATOM     23  C   UNL     1       5.916   1.667   0.000  0.00  0.00    +0.000 C 
ATOM     24  C   UNL     1       5.365   2.281   0.000  0.00  0.00    +0.000 C 
BRANCH  24  27
ATOM     25  O   UNL     1       5.071   3.679   0.000  0.00  0.00    +0.000 OA
ATOM     26  N   UNL     1       6.429   3.235   0.000  0.00  0.00    +0.000 N 
ATOM     27  C   UNL     1       5.622   3.065   0.000  0.00  0.00    +0.000 C 
ATOM     28  H   UNL     1       6.771   2.855   0.000  0.00  0.00    +0.000 HD
ATOM     29  H   UNL     1       6.588   3.721   0.000  0.00  0.00    +0.000 HD
ENDBRANCH  24  27
ENDBRANCH  13  19
ENDBRANCH   9  16
ENDBRANCH   8   9
ENDBRANCH   5   8
ENDBRANCH   4   5
ENDBRANCH   1   4
BRANCH   1  30
ATOM     30  O   UNL     1      -2.097   0.858   0.000  0.00  0.00    +0.000 OA
BRANCH  30  31
ATOM     31  C   UNL     1      -2.850   1.194   0.000  0.00  0.00    +0.000 C 
BRANCH  31  37
ATOM     32  O   UNL     1      -3.519  -0.114   0.000  0.00  0.00    +0.000 OA
ATOM     33  O   UNL     1      -4.556   1.752   0.000  0.00  0.00    +0.000 OA
ATOM     34  C   UNL     1      -4.788   0.300   0.000  0.00  0.00    +0.000 C 
ATOM     35  C   UNL     1      -4.302   0.967   0.000  0.00  0.00    +0.000 C 
ATOM     36  C   UNL     1      -4.305  -0.368   0.000  0.00  0.00    +0.000 C 
ATOM     37  C   UNL     1      -3.518   0.711   0.000  0.00  0.00    +0.000 C 
BRANCH  36  38
ATOM     38  N   UNL     1      -4.561  -1.152   0.000  0.00  0.00    +0.000 N 
ATOM     39  N   UNL     1      -4.561  -2.480   0.000  0.00  0.00    +0.000 NA
ATOM     40  N   UNL     1      -6.056  -0.991   0.000  0.00  0.00    +0.000 NA
ATOM     41  N   UNL     1      -6.771  -2.228   0.000  0.00  0.00    +0.000 NA
ATOM     42  C   UNL     1      -5.341  -1.403   0.000  0.00  0.00    +0.000 A 
ATOM     43  C   UNL     1      -4.080  -1.816   0.000  0.00  0.00    +0.000 A 
ATOM     44  C   UNL     1      -5.341  -2.228   0.000  0.00  0.00    +0.000 A 
ATOM     45  C   UNL     1      -6.056  -2.641   0.000  0.00  0.00    +0.000 A 
ATOM     46  C   UNL     1      -6.771  -1.403   0.000  0.00  0.00    +0.000 A 
BRANCH  45  47
ATOM     47  N   UNL     1      -6.056  -3.466   0.000  0.00  0.00    +0.000 N 
ATOM     48  H   UNL     1      -5.613  -3.721   0.000  0.00  0.00    +0.000 HD
ATOM     49  H   UNL     1      -6.499  -3.721   0.000  0.00  0.00    +0.000 HD
ENDBRANCH  45  47
ENDBRANCH  36  38
BRANCH  34  50
ATOM     50  O   UNL     1      -5.613   0.302   0.000  0.00  0.00    +0.000 OA
BRANCH  50  51
ATOM     51  P   UNL     1      -6.025   1.017   0.000  0.00  0.00    +0.000 P 
ATOM     52  O   UNL     1      -6.436   1.732   0.000  0.00  0.00    +0.000 OA
ATOM     53  O   UNL     1      -6.740   0.606   0.000  0.00  0.00    +0.000 OA
ATOM     54  O   UNL     1      -5.309   1.428   0.000  0.00  0.00    +0.000 OA
ENDBRANCH  50  51
ENDBRANCH  34  50
ENDBRANCH  31  37
ENDBRANCH  30  31
ENDBRANCH   1  30
TORSDOF 14
