REMARK  Name = 
REMARK  3 active torsions:
REMARK  status: ('A' for Active; 'I' for Inactive)
REMARK    1  A    between atoms: CA_2  and  C_3
REMARK    2  A    between atoms: CA_2  and  C_6
REMARK    3  A    between atoms: C_6  and  C_7
REMARK                            x       y       z     vdW  Elec       q    Type
REMARK                         _______ _______ _______ _____ _____    ______ ____
ROOT
ATOM      1  C   UNL     1      -0.730   0.071   0.000  0.00  0.00    +0.000 A 
ATOM      2  C   UNL     1      -0.985  -0.714   0.000  0.00  0.00    +0.000 A 
ATOM      3  C   UNL     1      -1.398   0.556   0.000  0.00  0.00    +0.000 A 
ATOM      4  C   UNL     1      -1.398   1.381   0.000  0.00  0.00    +0.000 C 
ATOM      5  O   UNL     1      -0.500  -1.381   0.000  0.00  0.00    +0.000 OA
ATOM      6  N   UNL     1      -1.810  -0.714   0.000  0.00  0.00    +0.000 NA
ATOM      7  O   UNL     1      -2.065   0.071   0.000  0.00  0.00    +0.000 OA
ENDROOT
BRANCH   1   8
ATOM      8  C   UNL     1       0.054   0.326   0.000  0.00  0.00    +0.000 C 
BRANCH   8  10
ATOM      9  N   UNL     1       0.496  -1.033   0.000  0.00  0.00    +0.000 NA
ATOM     10  CA  UNL     1       0.667  -0.226   0.000  0.00  0.00    +0.000 C 
BRANCH  10  11
ATOM     11  C   UNL     1       1.452   0.029   0.000  0.00  0.00    +0.000 C 
ATOM     12  O   UNL     1       2.065  -0.523   0.000  0.00  0.00    +0.000 OA
ATOM     13  OXT UNL     1       1.623   0.836   0.000  0.00  0.00    +0.000 OA
ENDBRANCH  10  11
ENDBRANCH   8  10
ENDBRANCH   1   8
TORSDOF 3
