REMARK  Name = 
REMARK  3 active torsions:
REMARK  status: ('A' for Active; 'I' for Inactive)
REMARK    1  A    between atoms: N_10  and  C_11
REMARK    2  A    between atoms: C_11  and  C_12
REMARK    3  A    between atoms: C_12  and  C_13
REMARK                            x       y       z     vdW  Elec       q    Type
REMARK                         _______ _______ _______ _____ _____    ______ ____
ROOT
ATOM      1  C   UNL     1       4.258   1.639   0.000  0.00  0.00    +0.000 C 
ATOM      2  C   UNL     1       3.705   1.026   0.000  0.00  0.00    +0.000 A 
ATOM      3  C   UNL     1       3.960   0.241   0.000  0.00  0.00    +0.000 A 
ATOM      4  C   UNL     1       3.408  -0.372   0.000  0.00  0.00    +0.000 A 
ATOM      5  C   UNL     1       2.601  -0.201   0.000  0.00  0.00    +0.000 A 
ATOM      6  C   UNL     1       2.346   0.584   0.000  0.00  0.00    +0.000 A 
ATOM      7  C   UNL     1       2.898   1.197   0.000  0.00  0.00    +0.000 A 
ATOM      8  C   UNL     1       1.521   0.584   0.000  0.00  0.00    +0.000 A 
ATOM      9  C   UNL     1       1.266  -0.201   0.000  0.00  0.00    +0.000 A 
ATOM     10  N   UNL     1       1.934  -0.685   0.000  0.00  0.00    +0.000 N 
ATOM     11  C   UNL     1       0.460  -0.372   0.000  0.00  0.00    +0.000 C 
ATOM     12  C   UNL     1      -0.092   0.241   0.000  0.00  0.00    +0.000 C 
ATOM     13  N   UNL     1       0.162   1.026   0.000  0.00  0.00    +0.000 NA
ATOM     14  C   UNL     1       0.969   1.197   0.000  0.00  0.00    +0.000 C 
ATOM     15  C   UNL     1      -0.390   1.639   0.000  0.00  0.00    +0.000 C 
ENDROOT
BRANCH  10  16
ATOM     16  C   UNL     1       1.934  -1.510   0.000  0.00  0.00    +0.000 C 
BRANCH  16  17
ATOM     17  C   UNL     1       2.648  -1.923   0.000  0.00  0.00    +0.000 C 
BRANCH  17  18
ATOM     18  C   UNL     1       2.648  -2.748   0.000  0.00  0.00    +0.000 A 
ATOM     19  C   UNL     1       3.363  -3.160   0.000  0.00  0.00    +0.000 A 
ATOM     20  C   UNL     1       3.363  -3.986   0.000  0.00  0.00    +0.000 A 
ATOM     21  C   UNL     1       2.648  -4.398   0.000  0.00  0.00    +0.000 A 
ATOM     22  N   UNL     1       1.934  -3.986   0.000  0.00  0.00    +0.000 NA
ATOM     23  C   UNL     1       1.934  -3.160   0.000  0.00  0.00    +0.000 A 
ATOM     24  C   UNL     1       2.648  -5.223   0.000  0.00  0.00    +0.000 C 
ENDBRANCH  17  18
ENDBRANCH  16  17
ENDBRANCH  10  16
TORSDOF 3
