REMARK  Name = 
REMARK  7 active torsions:
REMARK  status: ('A' for Active; 'I' for Inactive)
REMARK    1  A    between atoms: N_6  and  C_18
REMARK    2  A    between atoms: N_7  and  C_27
REMARK    3  A    between atoms: C_12  and  C_18
REMARK    4  A    between atoms: C_18  and  C_24
REMARK    5  A    between atoms: C_19  and  C_25
REMARK    6  A    between atoms: C_26  and  C_27
REMARK    7  A    between atoms: C_29  and  C_31
REMARK                            x       y       z     vdW  Elec       q    Type
REMARK                         _______ _______ _______ _____ _____    ______ ____
ROOT
ATOM      1  O   UNL     1       0.989  -1.362   0.000  0.00  0.00    +0.000 OA
ATOM      2  N   UNL     1       0.275  -0.124   0.000  0.00  0.00    +0.000 N 
ATOM      3  C   UNL     1       0.275   1.526   0.000  0.00  0.00    +0.000 C 
ATOM      4  C   UNL     1      -0.440   1.113   0.000  0.00  0.00    +0.000 C 
ATOM      5  C   UNL     1       0.989   1.113   0.000  0.00  0.00    +0.000 C 
ATOM      6  C   UNL     1      -0.440   0.288   0.000  0.00  0.00    +0.000 C 
ATOM      7  C   UNL     1       0.989   0.288   0.000  0.00  0.00    +0.000 C 
ATOM      8  C   UNL     1       0.275  -0.949   0.000  0.00  0.00    +0.000 C 
ENDROOT
BRANCH   3  11
ATOM      9  N   UNL     1      -0.393   2.836   0.000  0.00  0.00    +0.000 N 
ATOM     10  N   UNL     1      -0.138   3.620   0.000  0.00  0.00    +0.000 NA
ATOM     11  C   UNL     1       0.275   2.351   0.000  0.00  0.00    +0.000 A 
ATOM     12  C   UNL     1       0.942   2.836   0.000  0.00  0.00    +0.000 A 
ATOM     13  C   UNL     1       0.687   3.620   0.000  0.00  0.00    +0.000 A 
ATOM     14  H   UNL     1      -0.879   2.678   0.000  0.00  0.00    +0.000 HD
BRANCH  13  17
ATOM     15 CL   UNL     1       2.328   3.448   0.000  0.00  0.00    +0.000 Cl
ATOM     16 CL   UNL     1       3.298   4.783   0.000  0.00  0.00    +0.000 Cl
ATOM     17  C   UNL     1       1.172   4.288   0.000  0.00  0.00    +0.000 A 
ATOM     18  C   UNL     1       1.992   4.201   0.000  0.00  0.00    +0.000 A 
ATOM     19  C   UNL     1       0.836   5.041   0.000  0.00  0.00    +0.000 A 
ATOM     20  C   UNL     1       2.477   4.869   0.000  0.00  0.00    +0.000 A 
ATOM     21  C   UNL     1       1.321   5.709   0.000  0.00  0.00    +0.000 A 
ATOM     22  C   UNL     1       2.142   5.623   0.000  0.00  0.00    +0.000 A 
ENDBRANCH  13  17
ENDBRANCH   3  11
BRANCH   8  23
ATOM     23  C   UNL     1      -0.440  -1.362   0.000  0.00  0.00    +0.000 C 
BRANCH  23  25
ATOM     24  O   UNL     1      -1.869  -2.187   0.000  0.00  0.00    +0.000 OA
ATOM     25  N   UNL     1      -0.440  -2.187   0.000  0.00  0.00    +0.000 N 
ATOM     26  C   UNL     1      -1.154  -2.599   0.000  0.00  0.00    +0.000 C 
ATOM     27  H   UNL     1       0.003  -2.443   0.000  0.00  0.00    +0.000 HD
BRANCH  26  28
ATOM     28  C   UNL     1      -1.154  -3.424   0.000  0.00  0.00    +0.000 C 
BRANCH  28  29
ATOM     29  N   UNL     1      -0.440  -3.837   0.000  0.00  0.00    +0.000 NA
ATOM     30  N   UNL     1       0.797  -4.551   0.000  0.00  0.00    +0.000 N 
ATOM     31  N   UNL     1      -0.440  -5.266   0.000  0.00  0.00    +0.000 N 
ATOM     32  C   UNL     1      -0.027  -4.551   0.000  0.00  0.00    +0.000 C 
ATOM     33  H   UNL     1       1.053  -4.108   0.000  0.00  0.00    +0.000 HD
ATOM     34  H   UNL     1       1.053  -4.994   0.000  0.00  0.00    +0.000 HD
ATOM     35  H   UNL     1      -0.951  -5.266   0.000  0.00  0.00    +0.000 HD
ATOM     36  H   UNL     1      -0.184  -5.709   0.000  0.00  0.00    +0.000 HD
ENDBRANCH  28  29
BRANCH  28  37
ATOM     37  C   UNL     1      -1.869  -3.837   0.000  0.00  0.00    +0.000 C 
ATOM     38  C   UNL     1      -2.583  -3.424   0.000  0.00  0.00    +0.000 C 
ATOM     39  C   UNL     1      -1.869  -4.662   0.000  0.00  0.00    +0.000 C 
ATOM     40  C   UNL     1      -3.298  -3.837   0.000  0.00  0.00    +0.000 C 
ATOM     41  C   UNL     1      -2.583  -5.074   0.000  0.00  0.00    +0.000 C 
ATOM     42  C   UNL     1      -3.298  -4.662   0.000  0.00  0.00    +0.000 C 
ENDBRANCH  28  37
ENDBRANCH  26  28
ENDBRANCH  23  25
ENDBRANCH   8  23
TORSDOF 7
