REMARK  Name = 
REMARK  2 active torsions:
REMARK  status: ('A' for Active; 'I' for Inactive)
REMARK    1  A    between atoms: C_10  and  S_20
REMARK    2  A    between atoms: N_17  and  S_20
REMARK                            x       y       z     vdW  Elec       q    Type
REMARK                         _______ _______ _______ _____ _____    ______ ____
ROOT
ATOM      1  C   UNL     1       1.429   8.250   0.000  0.00  0.00    +0.000 C 
ATOM      2  C   UNL     1       0.000   5.775   0.000  0.00  0.00    +0.000 C 
ATOM      3  C   UNL     1       1.429   7.425   0.000  0.00  0.00    +0.000 A 
ATOM      4  C   UNL     1       0.715   6.188   0.000  0.00  0.00    +0.000 A 
ATOM      5  C   UNL     1       0.715   7.013   0.000  0.00  0.00    +0.000 A 
ATOM      6  C   UNL     1       2.143   6.188   0.000  0.00  0.00    +0.000 A 
ATOM      7 BR   UNL     1       0.000   7.425   0.000  0.00  0.00    +0.000 Br
ATOM      8  N   UNL     1       2.143   7.013   0.000  0.00  0.00    +0.000 NA
ATOM      9  N   UNL     1       1.429   5.775   0.000  0.00  0.00    +0.000 NA
ATOM     10  N   UNL     1       2.858   5.775   0.000  0.00  0.00    +0.000 NA
ENDROOT
BRANCH  10  13
ATOM     11  O   UNL     1       2.033   4.950   0.000  0.00  0.00    +0.000 OA
ATOM     12  O   UNL     1       3.683   4.950   0.000  0.00  0.00    +0.000 OA
ATOM     13  S   UNL     1       2.858   4.950   0.000  0.00  0.00    +0.000 S 
BRANCH  13  19
ATOM     14  C   UNL     1       3.572   2.888   0.000  0.00  0.00    +0.000 A 
ATOM     15  C   UNL     1       2.143   2.888   0.000  0.00  0.00    +0.000 A 
ATOM     16  C   UNL     1       3.572   3.712   0.000  0.00  0.00    +0.000 A 
ATOM     17  C   UNL     1       2.143   3.712   0.000  0.00  0.00    +0.000 A 
ATOM     18  C   UNL     1       2.858   2.475   0.000  0.00  0.00    +0.000 A 
ATOM     19  C   UNL     1       2.858   4.125   0.000  0.00  0.00    +0.000 A 
ATOM     20  N   UNL     1       2.858   1.650   0.000  0.00  0.00    +0.000 NA
ENDBRANCH  13  19
ENDBRANCH  10  13
TORSDOF 2
