REMARK  Name = 
REMARK  2 active torsions:
REMARK  status: ('A' for Active; 'I' for Inactive)
REMARK    1  A    between atoms: C_2  and  C_10
REMARK    2  A    between atoms: N_12  and  C_13
REMARK                            x       y       z     vdW  Elec       q    Type
REMARK                         _______ _______ _______ _____ _____    ______ ____
ROOT
ATOM      1  C   UNL     1      -1.149   0.566   0.000  0.00  0.00    +0.000 C 
ATOM      2  C   UNL     1      -0.436   0.153   0.000  0.00  0.00    +0.000 C 
ATOM      3  N   UNL     1      -0.436  -0.671   0.000  0.00  0.00    +0.000 N 
ATOM      4  S   UNL     1      -1.149  -1.084   0.000  0.00  0.00    +0.000 S 
ATOM      5  C   UNL     1      -1.865   0.153   0.000  0.00  0.00    +0.000 A 
ATOM      6  C   UNL     1      -1.862  -0.673   0.000  0.00  0.00    +0.000 A 
ATOM      7  C   UNL     1      -2.648  -0.931   0.000  0.00  0.00    +0.000 A 
ATOM      8  C   UNL     1      -3.135  -0.264   0.000  0.00  0.00    +0.000 A 
ATOM      9  S   UNL     1      -2.651   0.406   0.000  0.00  0.00    +0.000 S 
ATOM     10  C   UNL     1       0.278  -1.083   0.000  0.00  0.00    +0.000 C 
ATOM     11  O   UNL     1      -1.147   1.391   0.000  0.00  0.00    +0.000 OA
ATOM     12  O   UNL     1      -1.561  -1.798   0.000  0.00  0.00    +0.000 OA
ATOM     13  O   UNL     1      -0.736  -1.798   0.000  0.00  0.00    +0.000 OA
ENDROOT
BRANCH   2  14
ATOM     14  C   UNL     1       0.278   0.565   0.000  0.00  0.00    +0.000 C 
ATOM     15  O   UNL     1       0.279   1.390   0.000  0.00  0.00    +0.000 OA
ATOM     16  N   UNL     1       0.992   0.152   0.000  0.00  0.00    +0.000 NA
BRANCH  16  17
ATOM     17  C   UNL     1       1.707   0.564   0.000  0.00  0.00    +0.000 A 
ATOM     18  C   UNL     1       1.707   1.386   0.000  0.00  0.00    +0.000 A 
ATOM     19  C   UNL     1       2.421   1.798   0.000  0.00  0.00    +0.000 A 
ATOM     20  C   UNL     1       3.135   1.385   0.000  0.00  0.00    +0.000 A 
ATOM     21  C   UNL     1       3.135   0.560   0.000  0.00  0.00    +0.000 A 
ATOM     22  N   UNL     1       2.420   0.148   0.000  0.00  0.00    +0.000 NA
ENDBRANCH  16  17
ENDBRANCH   2  14
TORSDOF 2
