REMARK  Name = 
REMARK  6 active torsions:
REMARK  status: ('A' for Active; 'I' for Inactive)
REMARK    1  A    between atoms: C_2  and  C_3
REMARK    2  A    between atoms: C_3  and  O_4
REMARK    3  A    between atoms: O_4  and  N_5
REMARK    4  A    between atoms: C_6  and  C_8
REMARK    5  A    between atoms: C_9  and  N_10
REMARK    6  A    between atoms: N_10  and  C_11
REMARK                            x       y       z     vdW  Elec       q    Type
REMARK                         _______ _______ _______ _____ _____    ______ ____
ROOT
ATOM      1  C   UNL     1      -0.797   1.654   0.000  0.00  0.00    +0.000 A 
ATOM      2  C   UNL     1      -0.790   0.822   0.000  0.00  0.00    +0.000 A 
ATOM      3  C   UNL     1      -1.510   0.409   0.000  0.00  0.00    +0.000 A 
ATOM      4  F   UNL     1      -1.510  -0.416   0.000  0.00  0.00    +0.000 F 
ATOM      5  C   UNL     1      -2.223   0.822   0.000  0.00  0.00    +0.000 A 
ATOM      6  C   UNL     1      -2.223   1.647   0.000  0.00  0.00    +0.000 A 
ATOM      7  N   UNL     1      -3.014   1.905   0.000  0.00  0.00    +0.000 N 
ATOM      8  C   UNL     1      -3.265   2.688   0.000  0.00  0.00    +0.000 C 
ATOM      9  C   UNL     1      -3.496   1.234   0.000  0.00  0.00    +0.000 A 
ATOM     10  N   UNL     1      -3.014   0.570   0.000  0.00  0.00    +0.000 NA
ATOM     11  C   UNL     1      -1.510   2.066   0.000  0.00  0.00    +0.000 A 
ENDROOT
BRANCH   1  13
ATOM     12  N   UNL     1       0.636   1.654   0.000  0.00  0.00    +0.000 NA
ATOM     13  C   UNL     1      -0.077   2.066   0.000  0.00  0.00    +0.000 C 
ATOM     14  O   UNL     1      -0.077   2.891   0.000  0.00  0.00    +0.000 OA
BRANCH  12  15
ATOM     15  O   UNL     1       1.349   2.066   0.000  0.00  0.00    +0.000 OA
BRANCH  15  16
ATOM     16  C   UNL     1       2.062   1.654   0.000  0.00  0.00    +0.000 C 
BRANCH  16  18
ATOM     17  O   UNL     1       3.496   1.654   0.000  0.00  0.00    +0.000 OA
ATOM     18  C   UNL     1       2.783   2.066   0.000  0.00  0.00    +0.000 C 
ENDBRANCH  16  18
ENDBRANCH  15  16
ENDBRANCH  12  15
ENDBRANCH   1  13
BRANCH   2  19
ATOM     19  N   UNL     1      -0.077   0.409   0.000  0.00  0.00    +0.000 NA
BRANCH  19  20
ATOM     20  C   UNL     1      -0.077  -0.416   0.000  0.00  0.00    +0.000 A 
ATOM     21  C   UNL     1       0.636  -0.829   0.000  0.00  0.00    +0.000 A 
ATOM     22 CL   UNL     1       1.349  -0.416   0.000  0.00  0.00    +0.000 Cl
ATOM     23  C   UNL     1       0.636  -1.654   0.000  0.00  0.00    +0.000 A 
ATOM     24  C   UNL     1      -0.077  -2.066   0.000  0.00  0.00    +0.000 A 
ATOM     25 BR   UNL     1      -0.077  -2.891   0.000  0.00  0.00    +0.000 Br
ATOM     26  C   UNL     1      -0.790  -1.654   0.000  0.00  0.00    +0.000 A 
ATOM     27  C   UNL     1      -0.790  -0.829   0.000  0.00  0.00    +0.000 A 
ENDBRANCH  19  20
ENDBRANCH   2  19
TORSDOF 6
