REMARK  Name = 
REMARK  0 active torsions:
REMARK  status: ('A' for Active; 'I' for Inactive)
REMARK                            x       y       z     vdW  Elec       q    Type
REMARK                         _______ _______ _______ _____ _____    ______ ____
ROOT
ATOM      1  C   UNL     1       1.985   1.981   0.000  0.00  0.00    +0.000 C 
ATOM      2  C   UNL     1       2.206   1.186   0.000  0.00  0.00    +0.000 C 
ATOM      3  C   UNL     1       3.004   0.979   0.000  0.00  0.00    +0.000 C 
ATOM      4  C   UNL     1       3.225   0.184   0.000  0.00  0.00    +0.000 A 
ATOM      5  C   UNL     1       3.963  -0.184   0.000  0.00  0.00    +0.000 A 
ATOM      6  C   UNL     1       4.731   0.118   0.000  0.00  0.00    +0.000 A 
ATOM      7  C   UNL     1       5.376  -0.396   0.000  0.00  0.00    +0.000 A 
ATOM      8  C   UNL     1       5.254  -1.212   0.000  0.00  0.00    +0.000 A 
ATOM      9  C   UNL     1       4.486  -1.514   0.000  0.00  0.00    +0.000 A 
ATOM     10  C   UNL     1       3.841  -1.000   0.000  0.00  0.00    +0.000 A 
ATOM     11  N   UNL     1       3.027  -1.136   0.000  0.00  0.00    +0.000 NA
ATOM     12  C   UNL     1       2.646  -0.404   0.000  0.00  0.00    +0.000 A 
ATOM     13  C   UNL     1       1.848  -0.198   0.000  0.00  0.00    +0.000 C 
ATOM     14  N   UNL     1       1.627   0.598   0.000  0.00  0.00    +0.000 NA
ATOM     15  C   UNL     1       1.984  -1.011   0.000  0.00  0.00    +0.000 A 
ATOM     16  C   UNL     1       2.679  -1.455   0.000  0.00  0.00    +0.000 A 
ATOM     17  C   UNL     1       2.643  -2.279   0.000  0.00  0.00    +0.000 A 
ATOM     18  C   UNL     1       1.911  -2.660   0.000  0.00  0.00    +0.000 A 
ATOM     19  C   UNL     1       1.216  -2.216   0.000  0.00  0.00    +0.000 A 
ATOM     20  C   UNL     1       1.252  -1.392   0.000  0.00  0.00    +0.000 A 
ATOM     21  N   UNL     1       0.663  -0.814   0.000  0.00  0.00    +0.000 NA
ATOM     22  C   UNL     1       1.032  -0.075   0.000  0.00  0.00    +0.000 C 
ATOM     23  O   UNL     1       0.651   0.656   0.000  0.00  0.00    +0.000 OA
ATOM     24 CL   UNL     1       3.339  -2.722   0.000  0.00  0.00    +0.000 Cl
ATOM     25 CL   UNL     1       5.899  -1.725   0.000  0.00  0.00    +0.000 Cl
ATOM     26  F   UNL     1       6.144  -0.094   0.000  0.00  0.00    +0.000 F 
ENDROOT
TORSDOF 0
