REMARK  Name = 
REMARK  5 active torsions:
REMARK  status: ('A' for Active; 'I' for Inactive)
REMARK    1  A    between atoms: C_6  and  C_32
REMARK    2  A    between atoms: C_7  and  C_8
REMARK    3  A    between atoms: C_8  and  C_10
REMARK    4  A    between atoms: N_12  and  C_13
REMARK    5  A    between atoms: C_16  and  N_19
REMARK                            x       y       z     vdW  Elec       q    Type
REMARK                         _______ _______ _______ _____ _____    ______ ____
ROOT
ATOM      1  C   UNL     1      -1.865   0.401   0.000  0.00  0.00    +0.000 A 
ATOM      2  C   UNL     1      -2.650   0.656   0.000  0.00  0.00    +0.000 A 
ATOM      3  C   UNL     1      -2.821   1.463   0.000  0.00  0.00    +0.000 A 
ATOM      4  C   UNL     1      -2.208   2.015   0.000  0.00  0.00    +0.000 A 
ATOM      5  C   UNL     1      -1.424   1.760   0.000  0.00  0.00    +0.000 A 
ATOM      6  C   UNL     1      -1.252   0.953   0.000  0.00  0.00    +0.000 A 
ENDROOT
BRANCH   4   7
ATOM      7  N   UNL     1      -2.380   2.822   0.000  0.00  0.00    +0.000 N 
ATOM      8  C   UNL     1      -3.164   3.077   0.000  0.00  0.00    +0.000 C 
ATOM      9  C   UNL     1      -3.336   3.884   0.000  0.00  0.00    +0.000 C 
ATOM     10  N   UNL     1      -2.723   4.436   0.000  0.00  0.00    +0.000 N 
ATOM     11  C   UNL     1      -1.938   4.181   0.000  0.00  0.00    +0.000 C 
ATOM     12  C   UNL     1      -1.767   3.374   0.000  0.00  0.00    +0.000 C 
ATOM     13  C   UNL     1      -2.894   5.243   0.000  0.00  0.00    +0.000 A 
ATOM     14  N   UNL     1      -3.679   5.498   0.000  0.00  0.00    +0.000 NA
ATOM     15  C   UNL     1      -3.851   6.305   0.000  0.00  0.00    +0.000 A 
ATOM     16  C   UNL     1      -3.237   6.857   0.000  0.00  0.00    +0.000 A 
ATOM     17  F   UNL     1      -3.409   7.664   0.000  0.00  0.00    +0.000 F 
ATOM     18  C   UNL     1      -2.453   6.602   0.000  0.00  0.00    +0.000 A 
ATOM     19  N   UNL     1      -2.281   5.795   0.000  0.00  0.00    +0.000 NA
ENDBRANCH   4   7
BRANCH   1  22
ATOM     20  C   UNL     1      -0.909  -0.660   0.000  0.00  0.00    +0.000 C 
ATOM     21  O   UNL     1      -0.296  -0.108   0.000  0.00  0.00    +0.000 OA
ATOM     22  N   UNL     1      -1.694  -0.406   0.000  0.00  0.00    +0.000 NA
BRANCH  20  23
ATOM     23  C   UNL     1      -0.738  -1.468   0.000  0.00  0.00    +0.000 C 
ATOM     24  O   UNL     1      -1.351  -2.019   0.000  0.00  0.00    +0.000 OA
BRANCH  23  31
ATOM     25  C   UNL     1       0.715  -0.412   0.000  0.00  0.00    +0.000 C 
ATOM     26  N   UNL     1       0.715  -1.238   0.000  0.00  0.00    +0.000 N 
ATOM     27  C   UNL     1       1.382  -1.722   0.000  0.00  0.00    +0.000 A 
ATOM     28  C   UNL     1       2.167  -1.468   0.000  0.00  0.00    +0.000 C 
ATOM     29  C   UNL     1       1.127  -2.507   0.000  0.00  0.00    +0.000 A 
ATOM     30  C   UNL     1       0.302  -2.507   0.000  0.00  0.00    +0.000 A 
ATOM     31  C   UNL     1       0.047  -1.722   0.000  0.00  0.00    +0.000 A 
BRANCH  30  32
ATOM     32  C   UNL     1      -0.183  -3.175   0.000  0.00  0.00    +0.000 A 
ATOM     33  C   UNL     1       0.153  -3.928   0.000  0.00  0.00    +0.000 A 
ATOM     34  C   UNL     1      -0.332  -4.596   0.000  0.00  0.00    +0.000 A 
ATOM     35  C   UNL     1      -1.153  -4.509   0.000  0.00  0.00    +0.000 A 
ATOM     36  C   UNL     1      -1.488  -3.756   0.000  0.00  0.00    +0.000 A 
ATOM     37  C   UNL     1      -1.003  -3.088   0.000  0.00  0.00    +0.000 A 
ENDBRANCH  30  32
ENDBRANCH  23  31
ENDBRANCH  20  23
ENDBRANCH   1  22
TORSDOF 5
