REMARK  Name = 
REMARK  7 active torsions:
REMARK  status: ('A' for Active; 'I' for Inactive)
REMARK    1  A    between atoms: C_10  and  C_11
REMARK    2  A    between atoms: C_10  and  O_26
REMARK    3  A    between atoms: C_11  and  O_27
REMARK    4  A    between atoms: C_14  and  N_25
REMARK    5  A    between atoms: C_17  and  O_26
REMARK    6  A    between atoms: C_18  and  C_20
REMARK    7  A    between atoms: C_20  and  O_27
REMARK                            x       y       z     vdW  Elec       q    Type
REMARK                         _______ _______ _______ _____ _____    ______ ____
ROOT
ATOM      1  C   UNL     1       0.715  -0.412   0.000  0.00  0.00    +0.000 C 
ATOM      2  C   UNL     1       1.429  -0.825   0.000  0.00  0.00    +0.000 C 
ATOM      3  C   UNL     1       1.429  -1.650   0.000  0.00  0.00    +0.000 C 
ENDROOT
BRANCH   3   8
ATOM      4  C   UNL     1       0.000  -3.300   0.000  0.00  0.00    +0.000 A 
ATOM      5  C   UNL     1       0.715  -2.888   0.000  0.00  0.00    +0.000 A 
ATOM      6  C   UNL     1      -0.715  -2.062   0.000  0.00  0.00    +0.000 A 
ATOM      7  C   UNL     1      -0.715  -2.888   0.000  0.00  0.00    +0.000 A 
ATOM      8  C   UNL     1       0.715  -2.062   0.000  0.00  0.00    +0.000 A 
ATOM      9  C   UNL     1       0.000  -1.650   0.000  0.00  0.00    +0.000 A 
ATOM     10 CL   UNL     1      -1.429  -3.300   0.000  0.00  0.00    +0.000 Cl
ATOM     11 CL   UNL     1       0.000  -0.825   0.000  0.00  0.00    +0.000 Cl
ENDBRANCH   3   8
BRANCH   2  16
ATOM     12  C   UNL     1       3.037   0.580   0.000  0.00  0.00    +0.000 A 
ATOM     13  C   UNL     1       2.230   0.408   0.000  0.00  0.00    +0.000 A 
ATOM     14  C   UNL     1       2.897  -0.748   0.000  0.00  0.00    +0.000 A 
ATOM     15  N   UNL     1       3.449  -0.135   0.000  0.00  0.00    +0.000 NA
ATOM     16  N   UNL     1       2.143  -0.412   0.000  0.00  0.00    +0.000 N 
ENDBRANCH   2  16
BRANCH   3  17
ATOM     17  O   UNL     1       2.143  -2.062   0.000  0.00  0.00    +0.000 OA
BRANCH  17  18
ATOM     18  C   UNL     1       2.858  -1.650   0.000  0.00  0.00    +0.000 C 
BRANCH  18  19
ATOM     19  C   UNL     1       3.572  -2.062   0.000  0.00  0.00    +0.000 C 
BRANCH  19  20
ATOM     20  O   UNL     1       4.287  -1.650   0.000  0.00  0.00    +0.000 OA
BRANCH  20  26
ATOM     21  C   UNL     1       6.430  -2.062   0.000  0.00  0.00    +0.000 A 
ATOM     22  C   UNL     1       5.716  -3.300   0.000  0.00  0.00    +0.000 A 
ATOM     23  C   UNL     1       5.716  -1.650   0.000  0.00  0.00    +0.000 A 
ATOM     24  C   UNL     1       5.001  -2.888   0.000  0.00  0.00    +0.000 A 
ATOM     25  C   UNL     1       6.430  -2.888   0.000  0.00  0.00    +0.000 A 
ATOM     26  C   UNL     1       5.001  -2.062   0.000  0.00  0.00    +0.000 A 
ATOM     27 CL   UNL     1       7.145  -3.300   0.000  0.00  0.00    +0.000 Cl
ENDBRANCH  20  26
ENDBRANCH  19  20
ENDBRANCH  18  19
ENDBRANCH  17  18
ENDBRANCH   3  17
TORSDOF 7
