REMARK  Name = 
REMARK  8 active torsions:
REMARK  status: ('A' for Active; 'I' for Inactive)
REMARK    1  A    between atoms: P_1  and  O_6
REMARK    2  A    between atoms: P_1  and  N_19
REMARK    3  A    between atoms: P_2  and  O_10
REMARK    4  A    between atoms: P_2  and  N_19
REMARK    5  A    between atoms: P_3  and  O_10
REMARK    6  A    between atoms: O_6  and  C_24
REMARK    7  A    between atoms: N_17  and  C_23
REMARK    8  A    between atoms: C_21  and  C_24
REMARK                            x       y       z     vdW  Elec       q    Type
REMARK                         _______ _______ _______ _____ _____    ______ ____
ROOT
ATOM      1  O   UNL     1      -1.359   0.039   0.000  0.00  0.00    +0.000 OA
ATOM      2  O   UNL     1      -2.924  -1.413   0.000  0.00  0.00    +0.000 OA
ATOM      3  C   UNL     1      -2.439  -0.746   0.000  0.00  0.00    +0.000 C 
ATOM      4  C   UNL     1      -1.614  -0.746   0.000  0.00  0.00    +0.000 C 
ATOM      5  C   UNL     1      -2.694   0.039   0.000  0.00  0.00    +0.000 C 
ATOM      6  C   UNL     1      -2.026   0.524   0.000  0.00  0.00    +0.000 C 
ENDROOT
BRANCH   6   9
ATOM      7  O   UNL     1      -3.455   1.349   0.000  0.00  0.00    +0.000 OA
ATOM      8  O   UNL     1      -2.026   3.824   0.000  0.00  0.00    +0.000 OA
ATOM      9  N   UNL     1      -2.026   1.349   0.000  0.00  0.00    +0.000 N 
ATOM     10  N   UNL     1      -2.741   2.587   0.000  0.00  0.00    +0.000 N 
ATOM     11  C   UNL     1      -2.741   1.762   0.000  0.00  0.00    +0.000 A 
ATOM     12  C   UNL     1      -1.312   1.762   0.000  0.00  0.00    +0.000 A 
ATOM     13  C   UNL     1      -1.312   2.587   0.000  0.00  0.00    +0.000 A 
ATOM     14  C   UNL     1      -2.026   2.999   0.000  0.00  0.00    +0.000 A 
ATOM     15  H   UNL     1      -3.184   2.842   0.000  0.00  0.00    +0.000 HD
ENDBRANCH   6   9
BRANCH   4  16
ATOM     16  C   UNL     1      -1.129  -1.413   0.000  0.00  0.00    +0.000 C 
BRANCH  16  17
ATOM     17  O   UNL     1      -0.308  -1.327   0.000  0.00  0.00    +0.000 OA
BRANCH  17  18
ATOM     18  P   UNL     1       0.177  -1.994   0.000  0.00  0.00    +0.000 P 
ATOM     19  O   UNL     1       0.844  -1.509   0.000  0.00  0.00    +0.000 OA
ATOM     20  O   UNL     1      -0.491  -2.479   0.000  0.00  0.00    +0.000 OA
BRANCH  18  21
ATOM     21  N   UNL     1       0.662  -2.662   0.000  0.00  0.00    +0.000 NA
ATOM     22  H   UNL     1       0.454  -3.129   0.000  0.00  0.00    +0.000 HD
BRANCH  21  23
ATOM     23  P   UNL     1       1.482  -2.575   0.000  0.00  0.00    +0.000 P 
ATOM     24  O   UNL     1       1.569  -3.396   0.000  0.00  0.00    +0.000 OA
ATOM     25  O   UNL     1       1.396  -1.755   0.000  0.00  0.00    +0.000 OA
BRANCH  23  26
ATOM     26  O   UNL     1       2.303  -2.489   0.000  0.00  0.00    +0.000 OA
BRANCH  26  27
ATOM     27  P   UNL     1       2.788  -3.157   0.000  0.00  0.00    +0.000 P 
ATOM     28  O   UNL     1       3.455  -2.672   0.000  0.00  0.00    +0.000 OA
ATOM     29  O   UNL     1       3.273  -3.824   0.000  0.00  0.00    +0.000 OA
ATOM     30  O   UNL     1       2.120  -3.642   0.000  0.00  0.00    +0.000 OA
ENDBRANCH  26  27
ENDBRANCH  23  26
ENDBRANCH  21  23
ENDBRANCH  18  21
ENDBRANCH  17  18
ENDBRANCH  16  17
ENDBRANCH   4  16
TORSDOF 8
