REMARK  Name = 
REMARK  9 active torsions:
REMARK  status: ('A' for Active; 'I' for Inactive)
REMARK    1  A    between atoms: C_6  and  C_7
REMARK    2  A    between atoms: C_7  and  N_8
REMARK    3  A    between atoms: N_12  and  C_13
REMARK    4  A    between atoms: C_13  and  C_14
REMARK    5  A    between atoms: C_14  and  C_15
REMARK    6  A    between atoms: C_15  and  C_16
REMARK    7  A    between atoms: C_16  and  C_17
REMARK    8  A    between atoms: C_17  and  C_18
REMARK    9  A    between atoms: C_18  and  C_19
REMARK                            x       y       z     vdW  Elec       q    Type
REMARK                         _______ _______ _______ _____ _____    ______ ____
ROOT
ATOM      1  N   UNL     1      -2.465   0.004   0.000  0.00  0.00    +0.000 NA
ATOM      2  C   UNL     1      -1.753  -0.411   0.000  0.00  0.00    +0.000 C 
ATOM      3  N   UNL     1      -1.036  -0.000   0.000  0.00  0.00    +0.000 NA
ATOM      4  C   UNL     1      -0.328  -0.417   0.000  0.00  0.00    +0.000 C 
ATOM      5  N   UNL     1       0.388  -0.009   0.000  0.00  0.00    +0.000 NA
ATOM      6  N   UNL     1      -1.756  -1.238   0.000  0.00  0.00    +0.000 NA
ATOM      7  N   UNL     1      -0.333  -1.244   0.000  0.00  0.00    +0.000 NA
ENDROOT
BRANCH   5   8
ATOM      8  C   UNL     1       1.092  -0.428   0.000  0.00  0.00    +0.000 C 
BRANCH   8   9
ATOM      9  C   UNL     1       1.809  -0.026   0.000  0.00  0.00    +0.000 C 
BRANCH   9  10
ATOM     10  C   UNL     1       2.509  -0.446   0.000  0.00  0.00    +0.000 C 
BRANCH  10  11
ATOM     11  C   UNL     1       3.225  -0.046   0.000  0.00  0.00    +0.000 C 
BRANCH  11  12
ATOM     12  C   UNL     1       3.922  -0.468   0.000  0.00  0.00    +0.000 C 
BRANCH  12  13
ATOM     13  C   UNL     1       4.637  -0.071   0.000  0.00  0.00    +0.000 C 
BRANCH  13  14
ATOM     14  C   UNL     1       5.329  -0.494   0.000  0.00  0.00    +0.000 C 
ATOM     15  C   UNL     1       6.046  -0.106   0.000  0.00  0.00    +0.000 C 
ENDBRANCH  13  14
ENDBRANCH  12  13
ENDBRANCH  11  12
ENDBRANCH  10  11
ENDBRANCH   9  10
ENDBRANCH   8   9
ENDBRANCH   5   8
BRANCH   1  16
ATOM     16  C   UNL     1      -3.183  -0.410   0.000  0.00  0.00    +0.000 C 
BRANCH  16  22
ATOM     17  C   UNL     1      -5.328   0.831   0.000  0.00  0.00    +0.000 A 
ATOM     18  C   UNL     1      -5.329   0.001   0.000  0.00  0.00    +0.000 A 
ATOM     19  C   UNL     1      -4.612  -0.413   0.000  0.00  0.00    +0.000 A 
ATOM     20  C   UNL     1      -4.614   1.244   0.000  0.00  0.00    +0.000 A 
ATOM     21  C   UNL     1      -3.897   0.834   0.000  0.00  0.00    +0.000 A 
ATOM     22  C   UNL     1      -3.898   0.004   0.000  0.00  0.00    +0.000 A 
ATOM     23 CL   UNL     1      -6.044   1.244   0.000  0.00  0.00    +0.000 Cl
ATOM     24 CL   UNL     1      -6.046  -0.412   0.000  0.00  0.00    +0.000 Cl
ENDBRANCH  16  22
ENDBRANCH   1  16
TORSDOF 9
