REMARK  Name = 
REMARK  0 active torsions:
REMARK  status: ('A' for Active; 'I' for Inactive)
REMARK                            x       y       z     vdW  Elec       q    Type
REMARK                         _______ _______ _______ _____ _____    ______ ____
ROOT
ATOM      1  P   UNL     1       0.000   0.206   0.000  0.00  0.00    +0.000 P 
ATOM      2  H   UNL     1       0.715   0.619   0.000  0.00  0.00    +0.000 HD
ATOM      3  H   UNL     1      -0.715   0.619   0.000  0.00  0.00    +0.000 HD
ATOM      4  H   UNL     1       0.000  -0.619   0.000  0.00  0.00    +0.000 HD
ENDROOT
TORSDOF 0
