REMARK  Name = 
REMARK  9 active torsions:
REMARK  status: ('A' for Active; 'I' for Inactive)
REMARK    1  A    between atoms: C_2  and  C_4
REMARK    2  A    between atoms: C_3  and  C_9
REMARK    3  A    between atoms: C_4  and  P_6
REMARK    4  A    between atoms: P_6  and  C_16
REMARK    5  A    between atoms: C_8  and  C_13
REMARK    6  A    between atoms: C_16  and  C_23
REMARK    7  A    between atoms: C_17  and  C_20
REMARK    8  A    between atoms: C_20  and  C_24
REMARK    9  A    between atoms: C_23  and  C_24
REMARK                            x       y       z     vdW  Elec       q    Type
REMARK                         _______ _______ _______ _____ _____    ______ ____
ROOT
ATOM      1  N   UNL     1       2.480  -0.397   0.000  0.00  0.00    +0.000 N 
ATOM      2  C   UNL     1       1.938  -1.012   0.000  0.00  0.00    +0.000 C 
ATOM      3  C   UNL     1       3.298  -0.479   0.000  0.00  0.00    +0.000 C 
ATOM      4  C   UNL     1       2.306   0.406   0.000  0.00  0.00    +0.000 C 
ATOM      5  C   UNL     1       3.632   0.276   0.000  0.00  0.00    +0.000 C 
ATOM      6  C   UNL     1       3.018   0.828   0.000  0.00  0.00    +0.000 C 
ATOM      7  O   UNL     1       2.195  -1.791   0.000  0.00  0.00    +0.000 OA
ENDROOT
BRANCH   6   8
ATOM      8  C   UNL     1       2.427   1.413   0.000  0.00  0.00    +0.000 C 
ATOM      9  C   UNL     1       2.650   2.216   0.000  0.00  0.00    +0.000 C 
ATOM     10  C   UNL     1       1.629   1.200   0.000  0.00  0.00    +0.000 C 
ATOM     11  C   UNL     1       1.043   1.786   0.000  0.00  0.00    +0.000 C 
ATOM     12  C   UNL     1       2.064   2.807   0.000  0.00  0.00    +0.000 C 
ATOM     13  C   UNL     1       1.261   2.594   0.000  0.00  0.00    +0.000 C 
ENDBRANCH   6   8
BRANCH   3  14
ATOM     14  C   UNL     1       3.715  -1.191   0.000  0.00  0.00    +0.000 C 
ATOM     15  O   UNL     1       3.308  -1.902   0.000  0.00  0.00    +0.000 OA
ATOM     16  O   UNL     1       4.537  -1.181   0.000  0.00  0.00    +0.000 OA
ENDBRANCH   3  14
BRANCH   2  17
ATOM     17  C   UNL     1       1.130  -0.842   0.000  0.00  0.00    +0.000 C 
BRANCH  17  18
ATOM     18  P   UNL     1       0.583  -1.457   0.000  0.00  0.00    +0.000 P 
ATOM     19  O   UNL     1       0.365  -0.658   0.000  0.00  0.00    +0.000 OA
ATOM     20  O   UNL     1       0.840  -2.241   0.000  0.00  0.00    +0.000 OA
BRANCH  18  21
ATOM     21  C   UNL     1      -0.225  -1.292   0.000  0.00  0.00    +0.000 C 
BRANCH  21  22
ATOM     22  C   UNL     1      -0.772  -1.907   0.000  0.00  0.00    +0.000 C 
BRANCH  22  23
ATOM     23  C   UNL     1      -1.575  -1.742   0.000  0.00  0.00    +0.000 C 
BRANCH  23  24
ATOM     24  C   UNL     1      -2.122  -2.357   0.000  0.00  0.00    +0.000 C 
BRANCH  24  25
ATOM     25  C   UNL     1      -2.930  -2.188   0.000  0.00  0.00    +0.000 A 
ATOM     26  C   UNL     1      -3.472  -2.807   0.000  0.00  0.00    +0.000 A 
ATOM     27  C   UNL     1      -3.182  -1.408   0.000  0.00  0.00    +0.000 A 
ATOM     28  C   UNL     1      -3.990  -1.244   0.000  0.00  0.00    +0.000 A 
ATOM     29  C   UNL     1      -4.271  -2.638   0.000  0.00  0.00    +0.000 A 
ATOM     30  C   UNL     1      -4.537  -1.859   0.000  0.00  0.00    +0.000 A 
ENDBRANCH  24  25
ENDBRANCH  23  24
ENDBRANCH  22  23
ENDBRANCH  21  22
ENDBRANCH  18  21
ENDBRANCH  17  18
ENDBRANCH   2  17
TORSDOF 9
