REMARK  Name = 
REMARK  6 active torsions:
REMARK  status: ('A' for Active; 'I' for Inactive)
REMARK    1  A    between atoms: C_5  and  C_8
REMARK    2  A    between atoms: N_10  and  C_11
REMARK    3  A    between atoms: N_10  and  C_18
REMARK    4  A    between atoms: C_19  and  C_29
REMARK    5  A    between atoms: C_21  and  C_23
REMARK    6  A    between atoms: C_24  and  C_25
REMARK                            x       y       z     vdW  Elec       q    Type
REMARK                         _______ _______ _______ _____ _____    ______ ____
ROOT
ATOM      1  C   UNL     1       1.322  -0.062   0.000  0.00  0.00    +0.000 C 
ATOM      2  O   UNL     1       1.322   0.763   0.000  0.00  0.00    +0.000 OA
ATOM      3  N   UNL     1       2.037  -0.474   0.000  0.00  0.00    +0.000 N 
ENDROOT
BRANCH   1   8
ATOM      4  C   UNL     1      -1.536  -1.712   0.000  0.00  0.00    +0.000 C 
ATOM      5  C   UNL     1      -0.821  -1.299   0.000  0.00  0.00    +0.000 C 
ATOM      6  C   UNL     1      -0.821  -0.474   0.000  0.00  0.00    +0.000 C 
ATOM      7  C   UNL     1      -0.107  -0.062   0.000  0.00  0.00    +0.000 C 
ATOM      8  C   UNL     1       0.608  -0.474   0.000  0.00  0.00    +0.000 C 
ATOM      9  C   UNL     1       0.608  -1.299   0.000  0.00  0.00    +0.000 C 
ATOM     10  C   UNL     1      -0.107  -1.712   0.000  0.00  0.00    +0.000 C 
ENDBRANCH   1   8
BRANCH   3  11
ATOM     11  C   UNL     1       2.751  -0.062   0.000  0.00  0.00    +0.000 C 
ATOM     12  C   UNL     1       2.751   0.763   0.000  0.00  0.00    +0.000 C 
ATOM     13  C   UNL     1       3.466   1.176   0.000  0.00  0.00    +0.000 C 
ATOM     14  C   UNL     1       4.180   0.763   0.000  0.00  0.00    +0.000 C 
ATOM     15  C   UNL     1       4.180  -0.062   0.000  0.00  0.00    +0.000 C 
ATOM     16  C   UNL     1       3.466  -0.474   0.000  0.00  0.00    +0.000 C 
ATOM     17  O   UNL     1       4.895   1.176   0.000  0.00  0.00    +0.000 OA
ENDBRANCH   3  11
BRANCH   3  18
ATOM     18  C   UNL     1       2.037  -1.299   0.000  0.00  0.00    +0.000 A 
ATOM     19  C   UNL     1       2.704  -1.784   0.000  0.00  0.00    +0.000 A 
ATOM     20  S   UNL     1       2.449  -2.569   0.000  0.00  0.00    +0.000 S 
ATOM     21  C   UNL     1       1.624  -2.569   0.000  0.00  0.00    +0.000 A 
ATOM     22  C   UNL     1       1.369  -1.784   0.000  0.00  0.00    +0.000 A 
BRANCH  19  23
ATOM     23  C   UNL     1       3.489  -1.529   0.000  0.00  0.00    +0.000 C 
ATOM     24  O   UNL     1       4.102  -2.081   0.000  0.00  0.00    +0.000 OA
ATOM     25  O   UNL     1       3.660  -0.722   0.000  0.00  0.00    +0.000 OA
ENDBRANCH  19  23
BRANCH  21  26
ATOM     26  C   UNL     1       1.139  -3.236   0.000  0.00  0.00    +0.000 C 
ATOM     27  C   UNL     1       0.654  -3.904   0.000  0.00  0.00    +0.000 C 
BRANCH  27  28
ATOM     28  C   UNL     1       0.169  -4.571   0.000  0.00  0.00    +0.000 C 
ATOM     29  C   UNL     1      -0.316  -5.238   0.000  0.00  0.00    +0.000 C 
ATOM     30  C   UNL     1      -0.498  -4.086   0.000  0.00  0.00    +0.000 C 
ATOM     31  C   UNL     1       0.837  -5.056   0.000  0.00  0.00    +0.000 C 
ENDBRANCH  27  28
ENDBRANCH  21  26
ENDBRANCH   3  18
TORSDOF 6
