REMARK  Name = 
REMARK  3 active torsions:
REMARK  status: ('A' for Active; 'I' for Inactive)
REMARK    1  A    between atoms: C_2  and  C_5
REMARK    2  A    between atoms: C_8  and  C_9
REMARK    3  A    between atoms: C_18  and  C_19
REMARK                            x       y       z     vdW  Elec       q    Type
REMARK                         _______ _______ _______ _____ _____    ______ ____
ROOT
ATOM      1  C   UNL     1      -0.317   0.098   0.000  0.00  0.00    +0.000 A 
ATOM      2  N   UNL     1      -0.317  -0.727   0.000  0.00  0.00    +0.000 NA
ATOM      3  C   UNL     1      -1.030  -1.142   0.000  0.00  0.00    +0.000 A 
ATOM      4  C   UNL     1      -1.030  -1.967   0.000  0.00  0.00    +0.000 A 
ATOM      5  C   UNL     1      -1.748  -2.377   0.000  0.00  0.00    +0.000 A 
ATOM      6  N   UNL     1      -2.461  -1.967   0.000  0.00  0.00    +0.000 N 
ATOM      7  C   UNL     1      -2.461  -1.142   0.000  0.00  0.00    +0.000 A 
ATOM      8  C   UNL     1      -1.748  -0.727   0.000  0.00  0.00    +0.000 A 
ATOM      9  C   UNL     1      -1.748   0.098   0.000  0.00  0.00    +0.000 A 
ATOM     10  C   UNL     1      -1.030   0.508   0.000  0.00  0.00    +0.000 A 
ATOM     11  N   UNL     1      -3.230  -0.867   0.000  0.00  0.00    +0.000 NA
ATOM     12  N   UNL     1      -3.724  -1.552   0.000  0.00  0.00    +0.000 NA
ATOM     13  C   UNL     1      -3.230  -2.214   0.000  0.00  0.00    +0.000 A 
ATOM     14  O   UNL     1      -3.477  -2.983   0.000  0.00  0.00    +0.000 OA
ENDROOT
BRANCH   1  18
ATOM     15  C   UNL     1       1.827   1.333   0.000  0.00  0.00    +0.000 A 
ATOM     16  C   UNL     1       1.114   1.748   0.000  0.00  0.00    +0.000 A 
ATOM     17  C   UNL     1       0.401   1.333   0.000  0.00  0.00    +0.000 A 
ATOM     18  C   UNL     1       0.401   0.508   0.000  0.00  0.00    +0.000 A 
ATOM     19  C   UNL     1       1.114   0.098   0.000  0.00  0.00    +0.000 A 
ATOM     20  C   UNL     1       1.827   0.508   0.000  0.00  0.00    +0.000 A 
BRANCH  15  22
ATOM     21  C   UNL     1       3.151   1.170   0.000  0.00  0.00    +0.000 C 
ATOM     22  C   UNL     1       2.545   1.748   0.000  0.00  0.00    +0.000 C 
ATOM     23  C   UNL     1       3.151   2.349   0.000  0.00  0.00    +0.000 C 
ATOM     24  C   UNL     1       3.724   1.748   0.000  0.00  0.00    +0.000 C 
ATOM     25  N   UNL     1       1.827   2.158   0.000  0.00  0.00    +0.000 NA
ENDBRANCH  15  22
ENDBRANCH   1  18
BRANCH  10  26
ATOM     26  C   UNL     1      -1.030   1.333   0.000  0.00  0.00    +0.000 A 
ATOM     27  C   UNL     1      -1.748   1.748   0.000  0.00  0.00    +0.000 A 
ATOM     28  C   UNL     1      -1.748   2.573   0.000  0.00  0.00    +0.000 A 
ATOM     29  C   UNL     1      -1.030   2.983   0.000  0.00  0.00    +0.000 A 
ATOM     30  C   UNL     1      -0.317   2.573   0.000  0.00  0.00    +0.000 A 
ATOM     31  C   UNL     1      -0.317   1.748   0.000  0.00  0.00    +0.000 A 
ENDBRANCH  10  26
TORSDOF 3
