REMARK  Name = 
REMARK  0 active torsions:
REMARK  status: ('A' for Active; 'I' for Inactive)
REMARK                            x       y       z     vdW  Elec       q    Type
REMARK                         _______ _______ _______ _____ _____    ______ ____
ROOT
ATOM      1  P   UNL     1      -0.225  -0.007   0.000  0.00  0.00    +0.000 P 
ATOM      2  O   UNL     1       0.186  -0.717   0.000  0.00  0.00    +0.000 OA
ATOM      3  O   UNL     1       0.186   0.708   0.000  0.00  0.00    +0.000 OA
ATOM      4  O   UNL     1      -0.944   0.398   0.000  0.00  0.00    +0.000 OA
ATOM      5  F   UNL     1      -0.944  -0.422   0.000  0.00  0.00    +0.000 F 
ENDROOT
TORSDOF 0
REMARK  Name = 
REMARK  0 active torsions:
REMARK  status: ('A' for Active; 'I' for Inactive)
REMARK                            x       y       z     vdW  Elec       q    Type
REMARK                         _______ _______ _______ _____ _____    ______ ____
ROOT
ATOM      1 NA   UNL     1       0.944  -0.780   0.000  0.00  0.00    +0.000 Na
ENDROOT
TORSDOF 0
REMARK  Name = 
REMARK  0 active torsions:
REMARK  status: ('A' for Active; 'I' for Inactive)
REMARK                            x       y       z     vdW  Elec       q    Type
REMARK                         _______ _______ _______ _____ _____    ______ ____
ROOT
ATOM      1 NA   UNL     1       0.944   0.780   0.000  0.00  0.00    +0.000 Na
ENDROOT
TORSDOF 0
