REMARK  Name = 
REMARK  7 active torsions:
REMARK  status: ('A' for Active; 'I' for Inactive)
REMARK    1  A    between atoms: N_3  and  C_10
REMARK    2  A    between atoms: N_5  and  C_13
REMARK    3  A    between atoms: C_7  and  C_8
REMARK    4  A    between atoms: C_7  and  C_9
REMARK    5  A    between atoms: C_8  and  C_10
REMARK    6  A    between atoms: C_9  and  C_11
REMARK    7  A    between atoms: C_13  and  C_14
REMARK                            x       y       z     vdW  Elec       q    Type
REMARK                         _______ _______ _______ _____ _____    ______ ____
ROOT
ATOM      1  C   UNK     1       0.000   0.334   0.000  0.00  0.00    +0.000 C 
ENDROOT
BRANCH   1   2
ATOM      2  N   UNK     1      -0.715  -0.078   0.000  0.00  0.00    +0.000 NA
ATOM      3  N   UNK     1      -1.429  -1.316   0.000  0.00  0.00    +0.000 NA
ATOM      4  N   UNK     1       0.000  -1.316   0.000  0.00  0.00    +0.000 NA
ATOM      5  C   UNK     1      -0.715  -0.903   0.000  0.00  0.00    +0.000 C 
BRANCH   3   6
ATOM      6  C   UNK     1      -1.429  -2.141   0.000  0.00  0.00    +0.000 C 
BRANCH   6   7
ATOM      7  C   UNK     1      -2.143  -2.553   0.000  0.00  0.00    +0.000 C 
ATOM      8  C   UNK     1      -2.143  -3.378   0.000  0.00  0.00    +0.000 C 
ENDBRANCH   6   7
ENDBRANCH   3   6
ENDBRANCH   1   2
BRANCH   1   9
ATOM      9  C   UNK     1       0.000   1.159   0.000  0.00  0.00    +0.000 C 
BRANCH   9  10
ATOM     10  C   UNK     1       0.714   1.572   0.000  0.00  0.00    +0.000 C 
BRANCH  10  12
ATOM     11  N   UNK     1       0.000   2.809   0.000  0.00  0.00    +0.000 NA
ATOM     12  C   UNK     1       0.714   2.397   0.000  0.00  0.00    +0.000 C 
BRANCH  12  15
ATOM     13  O   UNK     1       2.143   2.397   0.000  0.00  0.00    +0.000 OA
ATOM     14  O   UNK     1       1.429   3.634   0.000  0.00  0.00    +0.000 OA
ATOM     15  C   UNK     1       1.429   2.809   0.000  0.00  0.00    +0.000 C 
ENDBRANCH  12  15
ENDBRANCH  10  12
ENDBRANCH   9  10
ENDBRANCH   1   9
TORSDOF 7
