REMARK  Name = 
REMARK  19 active torsions:
REMARK  status: ('A' for Active; 'I' for Inactive)
REMARK    1  A    between atoms: O_1  and  C_15
REMARK    2  A    between atoms: O_1  and  C_31
REMARK    3  A    between atoms: O_2  and  C_16
REMARK    4  A    between atoms: O_2  and  C_32
REMARK    5  A    between atoms: N_9  and  C_19
REMARK    6  A    between atoms: N_10  and  C_20
REMARK    7  A    between atoms: C_13  and  C_14
REMARK    8  A    between atoms: C_13  and  C_15
REMARK    9  A    between atoms: C_14  and  C_16
REMARK   10  A    between atoms: C_15  and  C_21
REMARK   11  A    between atoms: C_16  and  C_22
REMARK   12  A    between atoms: C_17  and  C_19
REMARK   13  A    between atoms: C_17  and  C_23
REMARK   14  A    between atoms: C_18  and  C_20
REMARK   15  A    between atoms: C_18  and  C_24
REMARK   16  A    between atoms: C_19  and  C_27
REMARK   17  A    between atoms: C_20  and  C_28
REMARK   18  A    between atoms: C_31  and  C_33
REMARK   19  A    between atoms: C_32  and  C_34
REMARK                            x       y       z     vdW  Elec       q    Type
REMARK                         _______ _______ _______ _____ _____    ______ ____
ROOT
ATOM      1  O   UNL     1      -0.714   1.031   0.000  0.00  0.00    +0.000 OA
ATOM      2  C   UNL     1      -0.714   0.206   0.000  0.00  0.00    +0.000 C 
ENDROOT
BRANCH   2   4
ATOM      3  O   UNL     1       0.000  -1.031   0.000  0.00  0.00    +0.000 OA
ATOM      4  C   UNL     1       0.000  -0.206   0.000  0.00  0.00    +0.000 C 
BRANCH   4   5
ATOM      5  C   UNL     1       0.714   0.206   0.000  0.00  0.00    +0.000 C 
BRANCH   5   8
ATOM      6  O   UNL     1       1.429  -1.031   0.000  0.00  0.00    +0.000 OA
ATOM      7  N   UNL     1       2.143   0.206   0.000  0.00  0.00    +0.000 N 
ATOM      8  C   UNL     1       1.429  -0.206   0.000  0.00  0.00    +0.000 C 
ATOM      9  H   UNL     1       2.143   0.718   0.000  0.00  0.00    +0.000 HD
BRANCH   7  10
ATOM     10  C   UNL     1       2.858  -0.206   0.000  0.00  0.00    +0.000 C 
BRANCH  10  13
ATOM     11  O   UNL     1       3.572   1.031   0.000  0.00  0.00    +0.000 OA
ATOM     12  N   UNL     1       4.287  -0.206   0.000  0.00  0.00    +0.000 N 
ATOM     13  C   UNL     1       3.572   0.206   0.000  0.00  0.00    +0.000 C 
ATOM     14  C   UNL     1       5.001   0.206   0.000  0.00  0.00    +0.000 C 
ATOM     15  H   UNL     1       4.287  -0.718   0.000  0.00  0.00    +0.000 HD
ENDBRANCH  10  13
BRANCH  10  16
ATOM     16  C   UNL     1       2.858  -1.031   0.000  0.00  0.00    +0.000 C 
ATOM     17  C   UNL     1       2.143  -1.444   0.000  0.00  0.00    +0.000 C 
BRANCH  16  18
ATOM     18  C   UNL     1       3.572  -1.444   0.000  0.00  0.00    +0.000 C 
ATOM     19  C   UNL     1       3.572  -2.269   0.000  0.00  0.00    +0.000 C 
ENDBRANCH  16  18
ENDBRANCH  10  16
ENDBRANCH   7  10
ENDBRANCH   5   8
BRANCH   5  20
ATOM     20  O   UNL     1       0.714   1.031   0.000  0.00  0.00    +0.000 OA
BRANCH  20  21
ATOM     21  C   UNL     1       1.429   1.444   0.000  0.00  0.00    +0.000 C 
BRANCH  21  22
ATOM     22  C   UNL     1       1.429   2.269   0.000  0.00  0.00    +0.000 A 
ATOM     23  C   UNL     1       2.143   2.681   0.000  0.00  0.00    +0.000 A 
ATOM     24  C   UNL     1       0.714   2.681   0.000  0.00  0.00    +0.000 A 
ATOM     25  C   UNL     1       2.143   3.506   0.000  0.00  0.00    +0.000 A 
ATOM     26  C   UNL     1       0.714   3.506   0.000  0.00  0.00    +0.000 A 
ATOM     27  C   UNL     1       1.429   3.919   0.000  0.00  0.00    +0.000 A 
ENDBRANCH  21  22
ENDBRANCH  20  21
ENDBRANCH   5  20
ENDBRANCH   4   5
ENDBRANCH   2   4
BRANCH   2  28
ATOM     28  C   UNL     1      -1.429  -0.206   0.000  0.00  0.00    +0.000 C 
BRANCH  28  31
ATOM     29  O   UNL     1      -2.858  -0.206   0.000  0.00  0.00    +0.000 OA
ATOM     30  N   UNL     1      -2.143   1.031   0.000  0.00  0.00    +0.000 N 
ATOM     31  C   UNL     1      -2.143   0.206   0.000  0.00  0.00    +0.000 C 
ATOM     32  H   UNL     1      -1.700   1.287   0.000  0.00  0.00    +0.000 HD
BRANCH  30  33
ATOM     33  C   UNL     1      -2.858   1.444   0.000  0.00  0.00    +0.000 C 
BRANCH  33  36
ATOM     34  O   UNL     1      -2.143   2.681   0.000  0.00  0.00    +0.000 OA
ATOM     35  N   UNL     1      -3.572   2.681   0.000  0.00  0.00    +0.000 N 
ATOM     36  C   UNL     1      -2.858   2.269   0.000  0.00  0.00    +0.000 C 
ATOM     37  C   UNL     1      -3.572   3.506   0.000  0.00  0.00    +0.000 C 
ATOM     38  H   UNL     1      -4.015   2.425   0.000  0.00  0.00    +0.000 HD
ENDBRANCH  33  36
BRANCH  33  39
ATOM     39  C   UNL     1      -3.572   1.031   0.000  0.00  0.00    +0.000 C 
ATOM     40  C   UNL     1      -3.572   0.206   0.000  0.00  0.00    +0.000 C 
BRANCH  39  41
ATOM     41  C   UNL     1      -4.287   1.444   0.000  0.00  0.00    +0.000 C 
ATOM     42  C   UNL     1      -5.001   1.031   0.000  0.00  0.00    +0.000 C 
ENDBRANCH  39  41
ENDBRANCH  33  39
ENDBRANCH  30  33
ENDBRANCH  28  31
BRANCH  28  43
ATOM     43  O   UNL     1      -1.429  -1.031   0.000  0.00  0.00    +0.000 OA
BRANCH  43  44
ATOM     44  C   UNL     1      -2.143  -1.444   0.000  0.00  0.00    +0.000 C 
BRANCH  44  45
ATOM     45  C   UNL     1      -2.143  -2.269   0.000  0.00  0.00    +0.000 A 
ATOM     46  C   UNL     1      -1.429  -2.681   0.000  0.00  0.00    +0.000 A 
ATOM     47  C   UNL     1      -2.858  -2.681   0.000  0.00  0.00    +0.000 A 
ATOM     48  C   UNL     1      -1.429  -3.506   0.000  0.00  0.00    +0.000 A 
ATOM     49  C   UNL     1      -2.858  -3.506   0.000  0.00  0.00    +0.000 A 
ATOM     50  C   UNL     1      -2.143  -3.919   0.000  0.00  0.00    +0.000 A 
ENDBRANCH  44  45
ENDBRANCH  43  44
ENDBRANCH  28  43
ENDBRANCH   2  28
TORSDOF 19
