REMARK  Name = 
REMARK  10 active torsions:
REMARK  status: ('A' for Active; 'I' for Inactive)
REMARK    1  A    between atoms: C_2  and  C_3
REMARK    2  A    between atoms: C_2  and  C_15
REMARK    3  A    between atoms: C_8  and  O_13
REMARK    4  A    between atoms: C_15  and  O_17
REMARK    5  A    between atoms: O_17  and  C_18
REMARK    6  A    between atoms: C_18  and  C_19
REMARK    7  A    between atoms: C_19  and  C_20
REMARK    8  A    between atoms: C_20  and  C_21
REMARK    9  A    between atoms: C_21  and  O_22
REMARK   10  A    between atoms: O_22  and  N_23
REMARK                            x       y       z     vdW  Elec       q    Type
REMARK                         _______ _______ _______ _____ _____    ______ ____
ROOT
ATOM      1  C   UNL     1       2.858  -2.475   0.000  0.00  0.00    +0.000 C 
ATOM      2  C   UNL     1       2.858  -1.650   0.000  0.00  0.00    +0.000 C 
ENDROOT
BRANCH   2   3
ATOM      3  C   UNL     1       2.143  -1.238   0.000  0.00  0.00    +0.000 A 
ATOM      4  C   UNL     1       1.429  -1.650   0.000  0.00  0.00    +0.000 A 
ATOM      5  C   UNL     1       0.715  -1.238   0.000  0.00  0.00    +0.000 A 
ATOM      6  C   UNL     1       0.715  -0.412   0.000  0.00  0.00    +0.000 A 
ATOM      7  C   UNL     1       0.000   0.000   0.000  0.00  0.00    +0.000 A 
ATOM      8  C   UNL     1       0.000   0.825   0.000  0.00  0.00    +0.000 A 
ATOM      9  C   UNL     1       0.715   1.238   0.000  0.00  0.00    +0.000 A 
ATOM     10  C   UNL     1       1.429   0.825   0.000  0.00  0.00    +0.000 A 
ATOM     11  C   UNL     1       1.429   0.000   0.000  0.00  0.00    +0.000 A 
ATOM     12  C   UNL     1       2.143  -0.412   0.000  0.00  0.00    +0.000 A 
BRANCH   8  13
ATOM     13  O   UNL     1      -0.715   1.238   0.000  0.00  0.00    +0.000 OA
ATOM     14  C   UNL     1      -0.715   2.062   0.000  0.00  0.00    +0.000 C 
ENDBRANCH   8  13
ENDBRANCH   2   3
BRANCH   2  15
ATOM     15  C   UNL     1       3.572  -1.238   0.000  0.00  0.00    +0.000 C 
ATOM     16  O   UNL     1       3.572  -0.412   0.000  0.00  0.00    +0.000 OA
BRANCH  15  17
ATOM     17  O   UNL     1       4.287  -1.650   0.000  0.00  0.00    +0.000 OA
BRANCH  17  18
ATOM     18  C   UNL     1       5.001  -1.238   0.000  0.00  0.00    +0.000 C 
BRANCH  18  19
ATOM     19  C   UNL     1       5.716  -1.650   0.000  0.00  0.00    +0.000 C 
BRANCH  19  20
ATOM     20  C   UNL     1       6.430  -1.238   0.000  0.00  0.00    +0.000 C 
BRANCH  20  21
ATOM     21  C   UNL     1       7.145  -1.650   0.000  0.00  0.00    +0.000 C 
BRANCH  21  22
ATOM     22  O   UNL     1       7.859  -1.238   0.000  0.00  0.00    +0.000 OA
BRANCH  22  23
ATOM     23  N   UNL     1       8.574  -1.650   0.000  0.00  0.00    +0.000 N 
ATOM     24  O   UNL     1       9.288  -1.238   0.000  0.00  0.00    +0.000 OA
ATOM     25  O   UNL     1       8.574  -2.475   0.000  0.00  0.00    +0.000 OA
ENDBRANCH  22  23
ENDBRANCH  21  22
ENDBRANCH  20  21
ENDBRANCH  19  20
ENDBRANCH  18  19
ENDBRANCH  17  18
ENDBRANCH  15  17
ENDBRANCH   2  15
TORSDOF 10
