REMARK  Name = 
REMARK  5 active torsions:
REMARK  status: ('A' for Active; 'I' for Inactive)
REMARK    1  A    between atoms: N_2  and  C_10
REMARK    2  A    between atoms: C_12  and  O_17
REMARK    3  A    between atoms: O_17  and  C_18
REMARK    4  A    between atoms: C_21  and  S_24
REMARK    5  A    between atoms: S_24  and  C_27
REMARK                            x       y       z     vdW  Elec       q    Type
REMARK                         _______ _______ _______ _____ _____    ______ ____
ROOT
ATOM      1  C   UNL     1      -1.038  -1.536   0.000  0.00  0.00    +0.000 A 
ATOM      2  C   UNL     1      -0.625  -2.251   0.000  0.00  0.00    +0.000 A 
ATOM      3  C   UNL     1       0.612  -1.536   0.000  0.00  0.00    +0.000 A 
ATOM      4  C   UNL     1      -0.625  -0.822   0.000  0.00  0.00    +0.000 A 
ATOM      5  C   UNL     1       0.200  -2.251   0.000  0.00  0.00    +0.000 A 
ATOM      6  C   UNL     1       0.200  -0.822   0.000  0.00  0.00    +0.000 A 
ATOM      7  C   UNL     1       0.612  -2.965   0.000  0.00  0.00    +0.000 C 
ENDROOT
BRANCH   1   9
ATOM      8  C   UNL     1      -2.275  -2.251   0.000  0.00  0.00    +0.000 A 
ATOM      9  N   UNL     1      -1.863  -1.536   0.000  0.00  0.00    +0.000 N 
ATOM     10  C   UNL     1      -2.275  -0.822   0.000  0.00  0.00    +0.000 A 
ATOM     11  N   UNL     1      -3.100  -0.822   0.000  0.00  0.00    +0.000 NA
ATOM     12  C   UNL     1      -3.513  -1.536   0.000  0.00  0.00    +0.000 A 
ATOM     13  N   UNL     1      -3.100  -2.251   0.000  0.00  0.00    +0.000 N 
ATOM     14  O   UNL     1      -1.863  -2.965   0.000  0.00  0.00    +0.000 OA
ATOM     15  O   UNL     1      -1.863  -0.107   0.000  0.00  0.00    +0.000 OA
ATOM     16  O   UNL     1      -4.338  -1.536   0.000  0.00  0.00    +0.000 OA
ATOM     17  C   UNL     1      -3.513  -2.965   0.000  0.00  0.00    +0.000 C 
ENDBRANCH   1   9
BRANCH   3  18
ATOM     18  O   UNL     1       1.437  -1.536   0.000  0.00  0.00    +0.000 OA
BRANCH  18  19
ATOM     19  C   UNL     1       1.850  -0.822   0.000  0.00  0.00    +0.000 A 
ATOM     20  C   UNL     1       2.675  -0.822   0.000  0.00  0.00    +0.000 A 
ATOM     21  C   UNL     1       3.087  -0.107   0.000  0.00  0.00    +0.000 A 
ATOM     22  C   UNL     1       2.675   0.607   0.000  0.00  0.00    +0.000 A 
ATOM     23  C   UNL     1       1.850   0.607   0.000  0.00  0.00    +0.000 A 
ATOM     24  C   UNL     1       1.437  -0.107   0.000  0.00  0.00    +0.000 A 
BRANCH  22  25
ATOM     25  S   UNL     1       3.211   1.536   0.000  0.00  0.00    +0.000 S 
ATOM     26  O   UNL     1       3.925   1.124   0.000  0.00  0.00    +0.000 OA
ATOM     27  O   UNL     1       2.497   1.949   0.000  0.00  0.00    +0.000 OA
BRANCH  25  28
ATOM     28  C   UNL     1       3.623   2.251   0.000  0.00  0.00    +0.000 C 
ATOM     29  F   UNL     1       4.338   1.838   0.000  0.00  0.00    +0.000 F 
ATOM     30  F   UNL     1       2.909   2.663   0.000  0.00  0.00    +0.000 F 
ATOM     31  F   UNL     1       4.036   2.965   0.000  0.00  0.00    +0.000 F 
ENDBRANCH  25  28
ENDBRANCH  22  25
ENDBRANCH  18  19
ENDBRANCH   3  18
TORSDOF 5
