REMARK  Name = 
REMARK  21 active torsions:
REMARK  status: ('A' for Active; 'I' for Inactive)
REMARK    1  A    between atoms: O_1  and  C_23
REMARK    2  A    between atoms: O_1  and  C_31
REMARK    3  A    between atoms: O_3  and  C_27
REMARK    4  A    between atoms: O_3  and  C_33
REMARK    5  A    between atoms: O_5  and  C_28
REMARK    6  A    between atoms: O_5  and  C_34
REMARK    7  A    between atoms: O_6  and  C_32
REMARK    8  A    between atoms: O_6  and  C_37
REMARK    9  A    between atoms: N_11  and  C_20
REMARK   10  A    between atoms: C_20  and  C_23
REMARK   11  A    between atoms: C_23  and  C_27
REMARK   12  A    between atoms: C_27  and  C_28
REMARK   13  A    between atoms: C_28  and  C_32
REMARK   14  A    between atoms: C_31  and  C_35
REMARK   15  A    between atoms: C_33  and  C_36
REMARK   16  A    between atoms: C_34  and  C_38
REMARK   17  A    between atoms: C_35  and  C_39
REMARK   18  A    between atoms: C_36  and  C_40
REMARK   19  A    between atoms: C_37  and  C_41
REMARK   20  A    between atoms: C_38  and  C_42
REMARK   21  A    between atoms: C_41  and  C_45
REMARK                            x       y       z     vdW  Elec       q    Type
REMARK                         _______ _______ _______ _____ _____    ______ ____
ROOT
ATOM      1  C   UNL     1       1.065   0.095   0.000  0.00  0.00    +0.000 C 
ENDROOT
BRANCH   1   2
ATOM      2  C   UNL     1       0.738  -0.662   0.000  0.00  0.00    +0.000 C 
BRANCH   2   5
ATOM      3  O   UNL     1       3.852  -2.460   0.000  0.00  0.00    +0.000 OA
ATOM      4  O   UNL     1       3.524   0.379   0.000  0.00  0.00    +0.000 OA
ATOM      5  N   UNL     1       1.229  -1.325   0.000  0.00  0.00    +0.000 N 
ATOM      6  N   UNL     1       2.213  -2.650   0.000  0.00  0.00    +0.000 NA
ATOM      7  N   UNL     1       2.377  -0.473   0.000  0.00  0.00    +0.000 NA
ATOM      8  N   UNL     1       3.688  -1.041   0.000  0.00  0.00    +0.000 NA
ATOM      9  C   UNL     1       2.049  -1.230   0.000  0.00  0.00    +0.000 A 
ATOM     10  C   UNL     1       0.901  -2.082   0.000  0.00  0.00    +0.000 A 
ATOM     11  C   UNL     1       2.541  -1.893   0.000  0.00  0.00    +0.000 A 
ATOM     12  C   UNL     1       1.393  -2.744   0.000  0.00  0.00    +0.000 A 
ATOM     13  C   UNL     1       3.360  -1.798   0.000  0.00  0.00    +0.000 A 
ATOM     14  C   UNL     1       0.082  -2.176   0.000  0.00  0.00    +0.000 A 
ATOM     15  C   UNL     1       1.065  -3.501   0.000  0.00  0.00    +0.000 A 
ATOM     16  C   UNL     1      -0.246  -2.934   0.000  0.00  0.00    +0.000 A 
ATOM     17  C   UNL     1       0.246  -3.596   0.000  0.00  0.00    +0.000 A 
ATOM     18  C   UNL     1       3.196  -0.379   0.000  0.00  0.00    +0.000 A 
ATOM     19  C   UNL     1      -1.065  -3.028   0.000  0.00  0.00    +0.000 C 
ATOM     20  C   UNL     1      -0.082  -4.353   0.000  0.00  0.00    +0.000 C 
ENDBRANCH   2   5
ENDBRANCH   1   2
BRANCH   1  21
ATOM     21  O   UNL     1       1.885   0.189   0.000  0.00  0.00    +0.000 OA
BRANCH  21  23
ATOM     22  O   UNL     1       1.721   1.609   0.000  0.00  0.00    +0.000 OA
ATOM     23  C   UNL     1       2.213   0.946   0.000  0.00  0.00    +0.000 C 
BRANCH  23  24
ATOM     24  C   UNL     1       3.032   1.041   0.000  0.00  0.00    +0.000 C 
BRANCH  24  25
ATOM     25  C   UNL     1       3.360   1.798   0.000  0.00  0.00    +0.000 C 
ATOM     26  C   UNL     1       4.180   1.893   0.000  0.00  0.00    +0.000 C 
ENDBRANCH  24  25
ENDBRANCH  23  24
ENDBRANCH  21  23
ENDBRANCH   1  21
BRANCH   1  27
ATOM     27  C   UNL     1       0.574   0.757   0.000  0.00  0.00    +0.000 C 
BRANCH  27  28
ATOM     28  C   UNL     1      -0.246   0.662   0.000  0.00  0.00    +0.000 C 
BRANCH  28  29
ATOM     29  C   UNL     1      -0.738   1.325   0.000  0.00  0.00    +0.000 C 
BRANCH  29  30
ATOM     30  O   UNL     1      -1.557   1.230   0.000  0.00  0.00    +0.000 OA
BRANCH  30  32
ATOM     31  O   UNL     1      -1.721   2.650   0.000  0.00  0.00    +0.000 OA
ATOM     32  C   UNL     1      -2.049   1.893   0.000  0.00  0.00    +0.000 C 
BRANCH  32  33
ATOM     33  C   UNL     1      -2.868   1.798   0.000  0.00  0.00    +0.000 C 
BRANCH  33  34
ATOM     34  C   UNL     1      -3.360   2.460   0.000  0.00  0.00    +0.000 C 
ATOM     35  C   UNL     1      -4.180   2.366   0.000  0.00  0.00    +0.000 C 
ENDBRANCH  33  34
ENDBRANCH  32  33
ENDBRANCH  30  32
ENDBRANCH  29  30
ENDBRANCH  28  29
BRANCH  28  36
ATOM     36  O   UNL     1      -0.574  -0.095   0.000  0.00  0.00    +0.000 OA
BRANCH  36  38
ATOM     37  O   UNL     1      -1.721  -0.946   0.000  0.00  0.00    +0.000 OA
ATOM     38  C   UNL     1      -1.393  -0.189   0.000  0.00  0.00    +0.000 C 
BRANCH  38  39
ATOM     39  C   UNL     1      -1.885   0.473   0.000  0.00  0.00    +0.000 C 
BRANCH  39  40
ATOM     40  C   UNL     1      -2.704   0.379   0.000  0.00  0.00    +0.000 C 
ATOM     41  C   UNL     1      -3.196   1.041   0.000  0.00  0.00    +0.000 C 
ENDBRANCH  39  40
ENDBRANCH  38  39
ENDBRANCH  36  38
ENDBRANCH  28  36
ENDBRANCH  27  28
BRANCH  27  42
ATOM     42  O   UNL     1       0.901   1.514   0.000  0.00  0.00    +0.000 OA
BRANCH  42  44
ATOM     43  O   UNL     1      -0.410   2.082   0.000  0.00  0.00    +0.000 OA
ATOM     44  C   UNL     1       0.410   2.176   0.000  0.00  0.00    +0.000 C 
BRANCH  44  45
ATOM     45  C   UNL     1       0.738   2.934   0.000  0.00  0.00    +0.000 C 
BRANCH  45  46
ATOM     46  C   UNL     1       0.246   3.596   0.000  0.00  0.00    +0.000 C 
ATOM     47  C   UNL     1       0.574   4.353   0.000  0.00  0.00    +0.000 C 
ENDBRANCH  45  46
ENDBRANCH  44  45
ENDBRANCH  42  44
ENDBRANCH  27  42
ENDBRANCH   1  27
TORSDOF 21
