REMARK  Name = 
REMARK  1 active torsions:
REMARK  status: ('A' for Active; 'I' for Inactive)
REMARK    1  A    between atoms: C_8  and  C_14
REMARK                            x       y       z     vdW  Elec       q    Type
REMARK                         _______ _______ _______ _____ _____    ______ ____
ROOT
ATOM      1  N   UNL     1      -0.098  -0.603   0.000  0.00  0.00    +0.000 NA
ATOM      2  C   UNL     1      -0.735  -0.161   0.000  0.00  0.00    +0.000 A 
ATOM      3  C   UNL     1       0.587  -0.116   0.000  0.00  0.00    +0.000 A 
ATOM      4  C   UNL     1      -0.491   0.650   0.000  0.00  0.00    +0.000 A 
ATOM      5  C   UNL     1       0.278   0.650   0.000  0.00  0.00    +0.000 A 
ATOM      6  C   UNL     1      -1.093   1.273   0.000  0.00  0.00    +0.000 A 
ATOM      7  C   UNL     1       0.866   1.263   0.000  0.00  0.00    +0.000 C 
ATOM      8  C   UNL     1       1.373  -0.255   0.000  0.00  0.00    +0.000 C 
ATOM      9  C   UNL     1      -1.580  -0.350   0.000  0.00  0.00    +0.000 A 
ATOM     10  C   UNL     1      -1.885   1.069   0.000  0.00  0.00    +0.000 A 
ATOM     11  C   UNL     1       1.651   1.123   0.000  0.00  0.00    +0.000 C 
ATOM     12  C   UNL     1      -2.129   0.257   0.000  0.00  0.00    +0.000 A 
ATOM     13  C   UNL     1       1.907   0.373   0.000  0.00  0.00    +0.000 C 
ATOM     14 CL   UNL     1      -2.457   1.663   0.000  0.00  0.00    +0.000 Cl
ENDROOT
BRANCH   8  15
ATOM     15  C   UNL     1       1.658  -1.033   0.000  0.00  0.00    +0.000 C 
ATOM     16  O   UNL     1       1.140  -1.663   0.000  0.00  0.00    +0.000 OA
ATOM     17  N   UNL     1       2.457  -1.156   0.000  0.00  0.00    +0.000 NA
ENDBRANCH   8  15
TORSDOF 1
