REMARK  Name = 
REMARK  2 active torsions:
REMARK  status: ('A' for Active; 'I' for Inactive)
REMARK    1  A    between atoms: C_17  and  C_19
REMARK    2  A    between atoms: C_25  and  N_26
REMARK                            x       y       z     vdW  Elec       q    Type
REMARK                         _______ _______ _______ _____ _____    ______ ____
ROOT
ATOM      1  C   UNL     1      -1.690  -1.684   0.000  0.00  0.00    +0.000 C 
ATOM      2  C   UNL     1      -1.278  -0.969   0.000  0.00  0.00    +0.000 A 
ATOM      3  C   UNL     1      -1.690  -0.255   0.000  0.00  0.00    +0.000 A 
ATOM      4  C   UNL     1      -1.278   0.460   0.000  0.00  0.00    +0.000 A 
ATOM      5  C   UNL     1      -1.690   1.174   0.000  0.00  0.00    +0.000 C 
ATOM      6  N   UNL     1      -0.453   0.460   0.000  0.00  0.00    +0.000 NA
ATOM      7  C   UNL     1      -0.040  -0.255   0.000  0.00  0.00    +0.000 A 
ATOM      8  N   UNL     1      -0.453  -0.969   0.000  0.00  0.00    +0.000 NA
ATOM      9  N   UNL     1       0.785  -0.255   0.000  0.00  0.00    +0.000 N 
ATOM     10  C   UNL     1       1.270   0.412   0.000  0.00  0.00    +0.000 C 
ATOM     11  C   UNL     1       2.054   0.158   0.000  0.00  0.00    +0.000 C 
ATOM     12  C   UNL     1       2.839   0.412   0.000  0.00  0.00    +0.000 C 
ATOM     13  N   UNL     1       3.324  -0.255   0.000  0.00  0.00    +0.000 N 
ATOM     14  C   UNL     1       2.839  -0.922   0.000  0.00  0.00    +0.000 C 
ATOM     15  C   UNL     1       2.054  -0.667   0.000  0.00  0.00    +0.000 C 
ATOM     16  C   UNL     1       1.270  -0.922   0.000  0.00  0.00    +0.000 C 
ATOM     17  C   UNL     1       4.149  -0.255   0.000  0.00  0.00    +0.000 C 
ATOM     18  O   UNL     1       4.561  -0.969   0.000  0.00  0.00    +0.000 OA
ENDROOT
BRANCH  17  19
ATOM     19  C   UNL     1       4.561   0.460   0.000  0.00  0.00    +0.000 A 
ATOM     20  C   UNL     1       4.149   1.174   0.000  0.00  0.00    +0.000 A 
ATOM     21  F   UNL     1       3.324   1.174   0.000  0.00  0.00    +0.000 F 
ATOM     22  C   UNL     1       4.561   1.889   0.000  0.00  0.00    +0.000 A 
ATOM     23  C   UNL     1       5.386   1.889   0.000  0.00  0.00    +0.000 A 
ATOM     24  C   UNL     1       5.799   1.174   0.000  0.00  0.00    +0.000 A 
ATOM     25  C   UNL     1       5.386   0.460   0.000  0.00  0.00    +0.000 A 
BRANCH  25  26
ATOM     26  N   UNL     1       5.799  -0.255   0.000  0.00  0.00    +0.000 N 
ATOM     27  N   UNL     1       6.619  -0.341   0.000  0.00  0.00    +0.000 NA
ATOM     28  C   UNL     1       6.791  -1.148   0.000  0.00  0.00    +0.000 A 
ATOM     29  C   UNL     1       6.076  -1.561   0.000  0.00  0.00    +0.000 A 
ATOM     30  N   UNL     1       5.463  -1.009   0.000  0.00  0.00    +0.000 NA
ENDBRANCH  25  26
ENDBRANCH  17  19
TORSDOF 2
