REMARK  Name = 
REMARK  25 active torsions:
REMARK  status: ('A' for Active; 'I' for Inactive)
REMARK    1  A    between atoms: C_3  and  C_5
REMARK    2  A    between atoms: C_4  and  C_6
REMARK    3  A    between atoms: C_5  and  C_7
REMARK    4  A    between atoms: C_6  and  C_8
REMARK    5  A    between atoms: C_7  and  C_9
REMARK    6  A    between atoms: C_8  and  C_10
REMARK    7  A    between atoms: C_9  and  C_15
REMARK    8  A    between atoms: C_10  and  C_16
REMARK    9  A    between atoms: C_11  and  C_12
REMARK   10  A    between atoms: C_11  and  C_13
REMARK   11  A    between atoms: C_12  and  C_14
REMARK   12  A    between atoms: C_13  and  C_17
REMARK   13  A    between atoms: C_14  and  C_18
REMARK   14  A    between atoms: C_15  and  C_19
REMARK   15  A    between atoms: C_16  and  C_20
REMARK   16  A    between atoms: C_17  and  C_21
REMARK   17  A    between atoms: C_18  and  C_22
REMARK   18  A    between atoms: C_19  and  C_27
REMARK   19  A    between atoms: C_20  and  C_28
REMARK   20  A    between atoms: C_21  and  C_29
REMARK   21  A    between atoms: C_22  and  C_30
REMARK   22  A    between atoms: C_27  and  N_37
REMARK   23  A    between atoms: C_28  and  N_38
REMARK   24  A    between atoms: C_29  and  N_39
REMARK   25  A    between atoms: C_30  and  N_40
REMARK                            x       y       z     vdW  Elec       q    Type
REMARK                         _______ _______ _______ _____ _____    ______ ____
ROOT
ATOM      1  C   UNL     1       5.716   0.000   0.000  0.00  0.00    +0.000 C 
ENDROOT
BRANCH   1   2
ATOM      2  C   UNL     1       5.001  -0.412   0.000  0.00  0.00    +0.000 C 
BRANCH   2   3
ATOM      3  C   UNL     1       4.287   0.000   0.000  0.00  0.00    +0.000 C 
BRANCH   3   4
ATOM      4  C   UNL     1       3.572  -0.412   0.000  0.00  0.00    +0.000 C 
BRANCH   4   5
ATOM      5  C   UNL     1       2.858   0.000   0.000  0.00  0.00    +0.000 C 
BRANCH   5   6
ATOM      6  C   UNL     1       2.143  -0.412   0.000  0.00  0.00    +0.000 C 
BRANCH   6  13
ATOM      7  C   UNL     1       0.000   0.000   0.000  0.00  0.00    +0.000 A 
ATOM      8  C   UNL     1       0.715   1.238   0.000  0.00  0.00    +0.000 A 
ATOM      9  C   UNL     1       0.715  -0.412   0.000  0.00  0.00    +0.000 A 
ATOM     10  C   UNL     1       1.429   0.825   0.000  0.00  0.00    +0.000 A 
ATOM     11  C   UNL     1       0.000   0.825   0.000  0.00  0.00    +0.000 A 
ATOM     12  N   UNL     1      -0.715   1.238   0.000  0.00  0.00    +0.000 NA
ATOM     13  N   UNL     1       1.429   0.000   0.000  0.00  0.00    +0.000 N 
BRANCH  12  14
ATOM     14  C   UNL     1      -1.429   0.825   0.000  0.00  0.00    +0.000 C 
BRANCH  14  15
ATOM     15  C   UNL     1      -2.143   1.238   0.000  0.00  0.00    +0.000 C 
BRANCH  15  16
ATOM     16  C   UNL     1      -2.143   2.062   0.000  0.00  0.00    +0.000 C 
BRANCH  16  17
ATOM     17  C   UNL     1      -2.858   2.475   0.000  0.00  0.00    +0.000 C 
BRANCH  17  18
ATOM     18  C   UNL     1      -2.858   3.300   0.000  0.00  0.00    +0.000 C 
BRANCH  18  19
ATOM     19  C   UNL     1      -3.572   3.712   0.000  0.00  0.00    +0.000 C 
BRANCH  19  21
ATOM     20  C   UNL     1      -4.287   4.950   0.000  0.00  0.00    +0.000 C 
ATOM     21  C   UNL     1      -3.572   4.537   0.000  0.00  0.00    +0.000 C 
ENDBRANCH  19  21
ENDBRANCH  18  19
ENDBRANCH  17  18
ENDBRANCH  16  17
ENDBRANCH  15  16
ENDBRANCH  14  15
ENDBRANCH  12  14
ENDBRANCH   6  13
ENDBRANCH   5   6
ENDBRANCH   4   5
ENDBRANCH   3   4
ENDBRANCH   2   3
ENDBRANCH   1   2
BRANCH   1  22
ATOM     22  C   UNL     1       6.430  -0.412   0.000  0.00  0.00    +0.000 C 
BRANCH  22  23
ATOM     23  C   UNL     1       7.145   0.000   0.000  0.00  0.00    +0.000 C 
BRANCH  23  24
ATOM     24  C   UNL     1       7.859  -0.412   0.000  0.00  0.00    +0.000 C 
BRANCH  24  25
ATOM     25  C   UNL     1       8.574   0.000   0.000  0.00  0.00    +0.000 C 
BRANCH  25  32
ATOM     26  C   UNL     1      10.717  -0.412   0.000  0.00  0.00    +0.000 A 
ATOM     27  C   UNL     1      10.003  -1.650   0.000  0.00  0.00    +0.000 A 
ATOM     28  C   UNL     1      10.003   0.000   0.000  0.00  0.00    +0.000 A 
ATOM     29  C   UNL     1       9.288  -1.238   0.000  0.00  0.00    +0.000 A 
ATOM     30  C   UNL     1      10.717  -1.238   0.000  0.00  0.00    +0.000 A 
ATOM     31  N   UNL     1      11.431  -1.650   0.000  0.00  0.00    +0.000 NA
ATOM     32  N   UNL     1       9.288  -0.412   0.000  0.00  0.00    +0.000 N 
BRANCH  31  33
ATOM     33  C   UNL     1      12.146  -1.238   0.000  0.00  0.00    +0.000 C 
BRANCH  33  34
ATOM     34  C   UNL     1      12.861  -1.650   0.000  0.00  0.00    +0.000 C 
BRANCH  34  35
ATOM     35  C   UNL     1      13.575  -1.238   0.000  0.00  0.00    +0.000 C 
BRANCH  35  36
ATOM     36  C   UNL     1      14.289  -1.650   0.000  0.00  0.00    +0.000 C 
BRANCH  36  37
ATOM     37  C   UNL     1      15.004  -1.238   0.000  0.00  0.00    +0.000 C 
BRANCH  37  38
ATOM     38  C   UNL     1      15.718  -1.650   0.000  0.00  0.00    +0.000 C 
BRANCH  38  40
ATOM     39  C   UNL     1      17.147  -1.650   0.000  0.00  0.00    +0.000 C 
ATOM     40  C   UNL     1      16.433  -1.238   0.000  0.00  0.00    +0.000 C 
ENDBRANCH  38  40
ENDBRANCH  37  38
ENDBRANCH  36  37
ENDBRANCH  35  36
ENDBRANCH  34  35
ENDBRANCH  33  34
ENDBRANCH  31  33
ENDBRANCH  25  32
ENDBRANCH  24  25
ENDBRANCH  23  24
ENDBRANCH  22  23
ENDBRANCH   1  22
TORSDOF 25
