REMARK  Name = 
REMARK  8 active torsions:
REMARK  status: ('A' for Active; 'I' for Inactive)
REMARK    1  A    between atoms: C_2  and  CA_8
REMARK    2  A    between atoms: CA_3  and  C_7
REMARK    3  A    between atoms: N_6  and  CA_8
REMARK    4  A    between atoms: N_6  and  CA_12
REMARK    5  A    between atoms: C_9  and  CA_12
REMARK    6  A    between atoms: CA_12  and  C_16
REMARK    7  A    between atoms: C_16  and  C_19
REMARK    8  A    between atoms: C_19  and  C_20
REMARK                            x       y       z     vdW  Elec       q    Type
REMARK                         _______ _______ _______ _____ _____    ______ ____
ROOT
ATOM      1  N   UNL     1       1.637   0.706   0.000  0.00  0.00    +0.000 N 
ATOM      2  C   UNL     1       1.224   1.428   0.000  0.00  0.00    +0.000 C 
ATOM      3  CA  UNL     1       2.476   0.689   0.000  0.00  0.00    +0.000 C 
ATOM      4  C   UNL     1       1.219  -0.008   0.000  0.00  0.00    +0.000 C 
ATOM      5  C   UNL     1       2.877  -0.021   0.000  0.00  0.00    +0.000 C 
ATOM      6  C   UNL     1       1.624  -0.727   0.000  0.00  0.00    +0.000 A 
ATOM      7  C   UNL     1       2.451  -0.739   0.000  0.00  0.00    +0.000 A 
ATOM      8  O   UNL     1       1.649   2.142   0.000  0.00  0.00    +0.000 OA
ATOM      9  C   UNL     1       2.861  -1.462   0.000  0.00  0.00    +0.000 A 
ATOM     10  C   UNL     1       1.198  -1.449   0.000  0.00  0.00    +0.000 A 
ATOM     11  C   UNL     1       1.608  -2.155   0.000  0.00  0.00    +0.000 A 
ATOM     12  C   UNL     1       2.439  -2.167   0.000  0.00  0.00    +0.000 A 
ENDROOT
BRANCH   3  13
ATOM     13  C   UNL     1       2.910   1.391   0.000  0.00  0.00    +0.000 C 
ATOM     14  O   UNL     1       2.522   2.117   0.000  0.00  0.00    +0.000 OA
ATOM     15  OXT UNL     1       3.729   1.365   0.000  0.00  0.00    +0.000 OA
ENDBRANCH   3  13
BRANCH   2  16
ATOM     16  CA  UNL     1       0.409   1.441   0.000  0.00  0.00    +0.000 C 
ATOM     17  CB  UNL     1       0.004   2.155   0.000  0.00  0.00    +0.000 C 
BRANCH  16  18
ATOM     18  N   UNL     1      -0.008   0.727   0.000  0.00  0.00    +0.000 NA
BRANCH  18  19
ATOM     19  CA  UNL     1      -0.831   0.739   0.000  0.00  0.00    +0.000 C 
BRANCH  19  20
ATOM     20  C   UNL     1      -1.236   1.453   0.000  0.00  0.00    +0.000 C 
ATOM     21  O   UNL     1      -2.059   1.466   0.000  0.00  0.00    +0.000 OA
ATOM     22  OXT UNL     1      -0.818   2.167   0.000  0.00  0.00    +0.000 OA
ENDBRANCH  19  20
BRANCH  19  23
ATOM     23  C   UNL     1      -1.249   0.025   0.000  0.00  0.00    +0.000 C 
BRANCH  23  24
ATOM     24  C   UNL     1      -2.071   0.037   0.000  0.00  0.00    +0.000 C 
BRANCH  24  25
ATOM     25  C   UNL     1      -2.485  -0.689   0.000  0.00  0.00    +0.000 A 
ATOM     26  C   UNL     1      -3.303  -0.676   0.000  0.00  0.00    +0.000 A 
ATOM     27  C   UNL     1      -2.084  -1.403   0.000  0.00  0.00    +0.000 A 
ATOM     28  C   UNL     1      -2.497  -2.117   0.000  0.00  0.00    +0.000 A 
ATOM     29  C   UNL     1      -3.729  -1.391   0.000  0.00  0.00    +0.000 A 
ATOM     30  C   UNL     1      -3.328  -2.105   0.000  0.00  0.00    +0.000 A 
ENDBRANCH  24  25
ENDBRANCH  23  24
ENDBRANCH  19  23
ENDBRANCH  18  19
ENDBRANCH  16  18
ENDBRANCH   2  16
TORSDOF 8
