REMARK  Name = 
REMARK  0 active torsions:
REMARK  status: ('A' for Active; 'I' for Inactive)
REMARK                            x       y       z     vdW  Elec       q    Type
REMARK                         _______ _______ _______ _____ _____    ______ ____
ROOT
ATOM      1  N   UNL     1      -1.082   0.010   0.000  0.00  0.00    +0.000 N 
ATOM      2  O   UNL     1      -1.929   0.007   0.000  0.00  0.00    +0.000 OA
ATOM      3  O   UNL     1      -0.678  -0.709   0.000  0.00  0.00    +0.000 OA
ATOM      4  O   UNL     1      -0.664   0.709   0.000  0.00  0.00    +0.000 OA
ENDROOT
TORSDOF 0
REMARK  Name = 
REMARK  0 active torsions:
REMARK  status: ('A' for Active; 'I' for Inactive)
REMARK                            x       y       z     vdW  Elec       q    Type
REMARK                         _______ _______ _______ _____ _____    ______ ____
ROOT
ATOM      1 NA   UNL     1       1.929  -0.083   0.000  0.00  0.00    +0.000 Na
ENDROOT
TORSDOF 0
