REMARK  Name = 
REMARK  20 active torsions:
REMARK  status: ('A' for Active; 'I' for Inactive)
REMARK    1  A    between atoms: S_1  and  C_49
REMARK    2  A    between atoms: P_3  and  O_7
REMARK    3  A    between atoms: P_4  and  O_9
REMARK    4  A    between atoms: P_4  and  O_12
REMARK    5  A    between atoms: P_5  and  O_12
REMARK    6  A    between atoms: P_5  and  O_13
REMARK    7  A    between atoms: O_7  and  C_29
REMARK    8  A    between atoms: O_9  and  C_33
REMARK    9  A    between atoms: O_13  and  C_39
REMARK   10  A    between atoms: N_22  and  C_32
REMARK   11  A    between atoms: N_26  and  C_45
REMARK   12  A    between atoms: N_27  and  C_42
REMARK   13  A    between atoms: N_28  and  C_48
REMARK   14  A    between atoms: C_31  and  C_33
REMARK   15  A    between atoms: C_36  and  C_38
REMARK   16  A    between atoms: C_36  and  C_39
REMARK   17  A    between atoms: C_38  and  C_43
REMARK   18  A    between atoms: C_45  and  C_46
REMARK   19  A    between atoms: C_46  and  C_47
REMARK   20  A    between atoms: C_48  and  C_49
REMARK                            x       y       z     vdW  Elec       q    Type
REMARK                         _______ _______ _______ _____ _____    ______ ____
ROOT
ATOM      1  P   UNL     1      -3.057   1.714   0.000  0.00  0.00    +0.000 P 
ATOM      2  O   UNL     1      -2.573   1.046   0.000  0.00  0.00    +0.000 OA
ATOM      3  O   UNL     1      -3.540   2.382   0.000  0.00  0.00    +0.000 OA
ENDROOT
BRANCH   1   4
ATOM      4  O   UNL     1      -2.389   2.198   0.000  0.00  0.00    +0.000 OA
BRANCH   4   5
ATOM      5  P   UNL     1      -1.635   1.861   0.000  0.00  0.00    +0.000 P 
ATOM      6  O   UNL     1      -1.299   2.614   0.000  0.00  0.00    +0.000 OA
ATOM      7  O   UNL     1      -1.972   1.108   0.000  0.00  0.00    +0.000 OA
BRANCH   5   8
ATOM      8  O   UNL     1      -0.882   1.524   0.000  0.00  0.00    +0.000 OA
BRANCH   8   9
ATOM      9  C   UNL     1      -0.214   2.008   0.000  0.00  0.00    +0.000 C 
BRANCH   9  10
ATOM     10  C   UNL     1       0.539   1.671   0.000  0.00  0.00    +0.000 C 
ATOM     11  C   UNL     1       0.202   0.918   0.000  0.00  0.00    +0.000 C 
ATOM     12  C   UNL     1       0.876   2.424   0.000  0.00  0.00    +0.000 C 
BRANCH  10  14
ATOM     13  O   UNL     1       1.377   0.513   0.000  0.00  0.00    +0.000 OA
ATOM     14  C   UNL     1       1.292   1.334   0.000  0.00  0.00    +0.000 C 
BRANCH  14  17
ATOM     15  O   UNL     1       1.875   2.638   0.000  0.00  0.00    +0.000 OA
ATOM     16  N   UNL     1       2.713   1.481   0.000  0.00  0.00    +0.000 N 
ATOM     17  C   UNL     1       1.960   1.818   0.000  0.00  0.00    +0.000 C 
ATOM     18  H   UNL     1       2.766   0.972   0.000  0.00  0.00    +0.000 HD
BRANCH  16  19
ATOM     19  C   UNL     1       3.381   1.965   0.000  0.00  0.00    +0.000 C 
BRANCH  19  20
ATOM     20  C   UNL     1       4.135   1.628   0.000  0.00  0.00    +0.000 C 
BRANCH  20  23
ATOM     21  O   UNL     1       4.718   2.932   0.000  0.00  0.00    +0.000 OA
ATOM     22  N   UNL     1       5.556   1.775   0.000  0.00  0.00    +0.000 N 
ATOM     23  C   UNL     1       4.803   2.112   0.000  0.00  0.00    +0.000 C 
ATOM     24  H   UNL     1       5.608   1.266   0.000  0.00  0.00    +0.000 HD
BRANCH  22  25
ATOM     25  C   UNL     1       6.224   2.258   0.000  0.00  0.00    +0.000 C 
BRANCH  25  26
ATOM     26  C   UNL     1       6.977   1.922   0.000  0.00  0.00    +0.000 C 
BRANCH  26  27
ATOM     27  S   UNL     1       7.645   2.405   0.000  0.00  0.00    +0.000 S 
ATOM     28  S   UNL     1       8.399   2.068   0.000  0.00  0.00    +0.000 S 
ENDBRANCH  26  27
ENDBRANCH  25  26
ENDBRANCH  22  25
ENDBRANCH  20  23
ENDBRANCH  19  20
ENDBRANCH  16  19
ENDBRANCH  14  17
ENDBRANCH  10  14
ENDBRANCH   9  10
ENDBRANCH   8   9
ENDBRANCH   5   8
ENDBRANCH   4   5
ENDBRANCH   1   4
BRANCH   1  29
ATOM     29  O   UNL     1      -3.725   1.230   0.000  0.00  0.00    +0.000 OA
BRANCH  29  30
ATOM     30  C   UNL     1      -4.478   1.567   0.000  0.00  0.00    +0.000 C 
BRANCH  30  35
ATOM     31  O   UNL     1      -5.148   0.258   0.000  0.00  0.00    +0.000 OA
ATOM     32  O   UNL     1      -7.242   0.674   0.000  0.00  0.00    +0.000 OA
ATOM     33  C   UNL     1      -5.930   1.340   0.000  0.00  0.00    +0.000 C 
ATOM     34  C   UNL     1      -6.417   0.673   0.000  0.00  0.00    +0.000 C 
ATOM     35  C   UNL     1      -5.146   1.083   0.000  0.00  0.00    +0.000 C 
ATOM     36  C   UNL     1      -5.933   0.005   0.000  0.00  0.00    +0.000 C 
BRANCH  36  37
ATOM     37  N   UNL     1      -6.189  -0.779   0.000  0.00  0.00    +0.000 N 
ATOM     38  N   UNL     1      -6.189  -2.107   0.000  0.00  0.00    +0.000 NA
ATOM     39  N   UNL     1      -7.684  -0.618   0.000  0.00  0.00    +0.000 NA
ATOM     40  N   UNL     1      -8.399  -1.856   0.000  0.00  0.00    +0.000 NA
ATOM     41  C   UNL     1      -6.970  -1.031   0.000  0.00  0.00    +0.000 A 
ATOM     42  C   UNL     1      -5.707  -1.443   0.000  0.00  0.00    +0.000 A 
ATOM     43  C   UNL     1      -6.970  -1.856   0.000  0.00  0.00    +0.000 A 
ATOM     44  C   UNL     1      -7.684  -2.268   0.000  0.00  0.00    +0.000 A 
ATOM     45  C   UNL     1      -8.399  -1.031   0.000  0.00  0.00    +0.000 A 
BRANCH  44  46
ATOM     46  N   UNL     1      -7.684  -3.093   0.000  0.00  0.00    +0.000 N 
ATOM     47  H   UNL     1      -8.127  -3.349   0.000  0.00  0.00    +0.000 HD
ATOM     48  H   UNL     1      -7.241  -3.349   0.000  0.00  0.00    +0.000 HD
ENDBRANCH  44  46
ENDBRANCH  36  37
BRANCH  33  49
ATOM     49  O   UNL     1      -6.184   2.125   0.000  0.00  0.00    +0.000 OA
BRANCH  49  50
ATOM     50  P   UNL     1      -5.631   2.737   0.000  0.00  0.00    +0.000 P 
ATOM     51  O   UNL     1      -6.243   3.290   0.000  0.00  0.00    +0.000 OA
ATOM     52  O   UNL     1      -5.078   3.349   0.000  0.00  0.00    +0.000 OA
ATOM     53  O   UNL     1      -5.019   2.184   0.000  0.00  0.00    +0.000 OA
ENDBRANCH  49  50
ENDBRANCH  33  49
ENDBRANCH  30  35
ENDBRANCH  29  30
ENDBRANCH   1  29
TORSDOF 20
