REMARK  Name = 
REMARK  3 active torsions:
REMARK  status: ('A' for Active; 'I' for Inactive)
REMARK    1  A    between atoms: C_7  and  S_8
REMARK    2  A    between atoms: S_8  and  N_11
REMARK    3  A    between atoms: N_11  and  C_12
REMARK                            x       y       z     vdW  Elec       q    Type
REMARK                         _______ _______ _______ _____ _____    ______ ____
ROOT
ATOM      1  C   UNL     1      -0.617  -1.021   0.000  0.00  0.00    +0.000 A 
ATOM      2  C   UNL     1      -1.445  -1.020   0.000  0.00  0.00    +0.000 A 
ATOM      3  C   UNL     1      -1.855  -0.309   0.000  0.00  0.00    +0.000 A 
ATOM      4  N   UNL     1      -2.679  -0.310   0.000  0.00  0.00    +0.000 NA
ATOM      5  C   UNL     1      -1.443   0.406   0.000  0.00  0.00    +0.000 A 
ATOM      6  C   UNL     1      -0.622   0.410   0.000  0.00  0.00    +0.000 A 
ATOM      7  C   UNL     1      -0.206  -0.305   0.000  0.00  0.00    +0.000 A 
ENDROOT
BRANCH   7   8
ATOM      8  S   UNL     1       0.619  -0.303   0.000  0.00  0.00    +0.000 S 
ATOM      9  O   UNL     1       0.621  -1.128   0.000  0.00  0.00    +0.000 OA
ATOM     10  O   UNL     1       0.617   0.522   0.000  0.00  0.00    +0.000 OA
BRANCH   8  11
ATOM     11  N   UNL     1       1.444  -0.301   0.000  0.00  0.00    +0.000 NA
BRANCH  11  12
ATOM     12  C   UNL     1       1.855   0.415   0.000  0.00  0.00    +0.000 C 
ATOM     13  S   UNL     1       1.440   1.128   0.000  0.00  0.00    +0.000 S 
ATOM     14  N   UNL     1       2.679   0.417   0.000  0.00  0.00    +0.000 NA
ENDBRANCH  11  12
ENDBRANCH   8  11
ENDBRANCH   7   8
TORSDOF 3
