REMARK  Name = 
REMARK  13 active torsions:
REMARK  status: ('A' for Active; 'I' for Inactive)
REMARK    1  A    between atoms: C_2  and  C_3
REMARK    2  A    between atoms: C_3  and  C_4
REMARK    3  A    between atoms: C_5  and  O_20
REMARK    4  A    between atoms: C_9  and  O_10
REMARK    5  A    between atoms: O_10  and  C_11
REMARK    6  A    between atoms: C_16  and  C_17
REMARK    7  A    between atoms: O_20  and  C_21
REMARK    8  A    between atoms: C_21  and  C_22
REMARK    9  A    between atoms: C_22  and  C_23
REMARK   10  A    between atoms: C_23  and  O_24
REMARK   11  A    between atoms: O_24  and  C_25
REMARK   12  A    between atoms: C_28  and  C_33
REMARK   13  A    between atoms: C_30  and  C_31
REMARK                            x       y       z     vdW  Elec       q    Type
REMARK                         _______ _______ _______ _____ _____    ______ ____
ROOT
ATOM      1  O   UNL     1       2.143  -6.188   0.000  0.00  0.00    +0.000 OA
ENDROOT
BRANCH   1   3
ATOM      2  C   UNL     1       0.715  -6.188   0.000  0.00  0.00    +0.000 A 
ATOM      3  C   UNL     1       1.429  -6.600   0.000  0.00  0.00    +0.000 A 
ATOM      4  C   UNL     1       1.429  -7.425   0.000  0.00  0.00    +0.000 A 
ATOM      5  C   UNL     1       0.715  -7.838   0.000  0.00  0.00    +0.000 A 
ATOM      6  C   UNL     1       0.000  -7.425   0.000  0.00  0.00    +0.000 A 
ATOM      7  C   UNL     1       0.000  -6.600   0.000  0.00  0.00    +0.000 A 
BRANCH   7   8
ATOM      8  O   UNL     1      -0.715  -6.188   0.000  0.00  0.00    +0.000 OA
BRANCH   8   9
ATOM      9  C   UNL     1      -1.429  -6.600   0.000  0.00  0.00    +0.000 A 
ATOM     10  C   UNL     1      -1.429  -7.425   0.000  0.00  0.00    +0.000 A 
ATOM     11  C   UNL     1      -2.143  -7.838   0.000  0.00  0.00    +0.000 A 
ATOM     12  C   UNL     1      -2.858  -7.425   0.000  0.00  0.00    +0.000 A 
ATOM     13  C   UNL     1      -2.858  -6.600   0.000  0.00  0.00    +0.000 A 
ATOM     14  C   UNL     1      -2.143  -6.188   0.000  0.00  0.00    +0.000 A 
BRANCH  14  15
ATOM     15  C   UNL     1      -2.143  -5.362   0.000  0.00  0.00    +0.000 C 
ATOM     16  O   UNL     1      -1.429  -4.950   0.000  0.00  0.00    +0.000 OA
ATOM     17  O   UNL     1      -2.858  -4.950   0.000  0.00  0.00    +0.000 OA
ENDBRANCH  14  15
ENDBRANCH   8   9
ENDBRANCH   7   8
BRANCH   2  18
ATOM     18  C   UNL     1       0.715  -5.362   0.000  0.00  0.00    +0.000 C 
BRANCH  18  20
ATOM     19  C   UNL     1       0.000  -4.125   0.000  0.00  0.00    +0.000 C 
ATOM     20  C   UNL     1       0.000  -4.950   0.000  0.00  0.00    +0.000 C 
ENDBRANCH  18  20
ENDBRANCH   2  18
ENDBRANCH   1   3
BRANCH   1  21
ATOM     21  C   UNL     1       2.858  -6.600   0.000  0.00  0.00    +0.000 C 
BRANCH  21  22
ATOM     22  C   UNL     1       3.572  -6.188   0.000  0.00  0.00    +0.000 C 
BRANCH  22  23
ATOM     23  C   UNL     1       4.287  -6.600   0.000  0.00  0.00    +0.000 C 
BRANCH  23  24
ATOM     24  O   UNL     1       5.001  -6.188   0.000  0.00  0.00    +0.000 OA
BRANCH  24  25
ATOM     25  C   UNL     1       5.716  -6.600   0.000  0.00  0.00    +0.000 A 
ATOM     26  C   UNL     1       6.430  -6.188   0.000  0.00  0.00    +0.000 A 
ATOM     27  C   UNL     1       7.145  -6.600   0.000  0.00  0.00    +0.000 A 
ATOM     28  C   UNL     1       7.145  -7.425   0.000  0.00  0.00    +0.000 A 
ATOM     29  C   UNL     1       6.430  -7.838   0.000  0.00  0.00    +0.000 A 
ATOM     30  C   UNL     1       5.716  -7.425   0.000  0.00  0.00    +0.000 A 
ATOM     31  O   UNL     1       7.859  -6.188   0.000  0.00  0.00    +0.000 OA
BRANCH  28  32
ATOM     32  C   UNL     1       7.859  -7.838   0.000  0.00  0.00    +0.000 A 
ATOM     33  C   UNL     1       8.574  -7.425   0.000  0.00  0.00    +0.000 A 
ATOM     34  C   UNL     1       9.288  -7.838   0.000  0.00  0.00    +0.000 A 
ATOM     35  C   UNL     1       9.288  -8.662   0.000  0.00  0.00    +0.000 A 
ATOM     36  C   UNL     1       8.574  -9.075   0.000  0.00  0.00    +0.000 A 
ATOM     37  C   UNL     1       7.859  -8.662   0.000  0.00  0.00    +0.000 A 
ATOM     38  F   UNL     1      10.003  -9.075   0.000  0.00  0.00    +0.000 F 
ENDBRANCH  28  32
BRANCH  30  39
ATOM     39  C   UNL     1       5.001  -7.838   0.000  0.00  0.00    +0.000 C 
ATOM     40  C   UNL     1       4.287  -7.425   0.000  0.00  0.00    +0.000 C 
ENDBRANCH  30  39
ENDBRANCH  24  25
ENDBRANCH  23  24
ENDBRANCH  22  23
ENDBRANCH  21  22
ENDBRANCH   1  21
TORSDOF 13
