REMARK  Name = 
REMARK  6 active torsions:
REMARK  status: ('A' for Active; 'I' for Inactive)
REMARK    1  A    between atoms: C_2  and  C_5
REMARK    2  A    between atoms: C_8  and  S_11
REMARK    3  A    between atoms: S_11  and  N_14
REMARK    4  A    between atoms: N_14  and  C_15
REMARK    5  A    between atoms: C_16  and  C_22
REMARK    6  A    between atoms: C_22  and  C_24
REMARK                            x       y       z     vdW  Elec       q    Type
REMARK                         _______ _______ _______ _____ _____    ______ ____
ROOT
ATOM      1  C   UNL     1       0.000  -8.250   0.000  0.00  0.00    +0.000 A 
ATOM      2  C   UNL     1       0.000  -9.075   0.000  0.00  0.00    +0.000 A 
ATOM      3  C   UNL     1      -0.715  -9.488   0.000  0.00  0.00    +0.000 A 
ATOM      4  C   UNL     1      -1.429  -9.075   0.000  0.00  0.00    +0.000 A 
ATOM      5 CL   UNL     1      -2.143  -9.488   0.000  0.00  0.00    +0.000 Cl
ATOM      6  C   UNL     1      -1.429  -8.250   0.000  0.00  0.00    +0.000 A 
ATOM      7  C   UNL     1      -0.715  -7.838   0.000  0.00  0.00    +0.000 A 
ENDROOT
BRANCH   2   8
ATOM      8  C   UNL     1       0.715  -9.488   0.000  0.00  0.00    +0.000 C 
ATOM      9  O   UNL     1       1.429  -9.075   0.000  0.00  0.00    +0.000 OA
BRANCH   8  10
ATOM     10  C   UNL     1       0.715 -10.312   0.000  0.00  0.00    +0.000 A 
ATOM     11  C   UNL     1       1.429 -10.725   0.000  0.00  0.00    +0.000 A 
ATOM     12  C   UNL     1       1.429 -11.550   0.000  0.00  0.00    +0.000 A 
ATOM     13  N   UNL     1       0.715 -11.963   0.000  0.00  0.00    +0.000 N 
ATOM     14  O   UNL     1       0.715 -12.787   0.000  0.00  0.00    +0.000 OA
ATOM     15  C   UNL     1       0.000 -11.550   0.000  0.00  0.00    +0.000 A 
ATOM     16  C   UNL     1       0.000 -10.725   0.000  0.00  0.00    +0.000 A 
ENDBRANCH   8  10
ENDBRANCH   2   8
BRANCH   1  17
ATOM     17  N   UNL     1       0.715  -7.838   0.000  0.00  0.00    +0.000 NA
BRANCH  17  18
ATOM     18  S   UNL     1       0.715  -7.013   0.000  0.00  0.00    +0.000 S 
ATOM     19  O   UNL     1      -0.111  -7.013   0.000  0.00  0.00    +0.000 OA
ATOM     20  O   UNL     1       1.540  -7.013   0.000  0.00  0.00    +0.000 OA
BRANCH  18  24
ATOM     21  C   UNL     1       0.715  -4.537   0.000  0.00  0.00    +0.000 A 
ATOM     22  C   UNL     1       1.429  -4.950   0.000  0.00  0.00    +0.000 A 
ATOM     23  C   UNL     1       1.429  -5.775   0.000  0.00  0.00    +0.000 A 
ATOM     24  C   UNL     1       0.715  -6.188   0.000  0.00  0.00    +0.000 A 
ATOM     25  C   UNL     1       0.000  -5.775   0.000  0.00  0.00    +0.000 A 
ATOM     26  C   UNL     1       0.000  -4.950   0.000  0.00  0.00    +0.000 A 
BRANCH  21  28
ATOM     27  C   UNL     1       0.715  -2.888   0.000  0.00  0.00    +0.000 C 
ATOM     28  C   UNL     1       0.715  -3.712   0.000  0.00  0.00    +0.000 C 
ATOM     29  C   UNL     1      -0.111  -3.712   0.000  0.00  0.00    +0.000 C 
ATOM     30  C   UNL     1       1.540  -3.712   0.000  0.00  0.00    +0.000 C 
ENDBRANCH  21  28
ENDBRANCH  18  24
ENDBRANCH  17  18
ENDBRANCH   1  17
TORSDOF 6
