REMARK  Name = 
REMARK  2 active torsions:
REMARK  status: ('A' for Active; 'I' for Inactive)
REMARK    1  A    between atoms: C_3  and  C_15
REMARK    2  A    between atoms: C_13  and  C_15
REMARK                            x       y       z     vdW  Elec       q    Type
REMARK                         _______ _______ _______ _____ _____    ______ ____
ROOT
ATOM      1  C   UNL     1      -1.159   6.150   0.000  0.00  0.00    +0.000 C 
ATOM      2  C   UNL     1       0.804   4.349   0.000  0.00  0.00    +0.000 C 
ATOM      3  C   UNL     1       0.804   5.174   0.000  0.00  0.00    +0.000 C 
ATOM      4  C   UNL     1       0.159   3.835   0.000  0.00  0.00    +0.000 C 
ATOM      5  C   UNL     1       0.159   5.688   0.000  0.00  0.00    +0.000 C 
ATOM      6  C   UNL     1      -1.003   4.761   0.000  0.00  0.00    +0.000 C 
ATOM      7  C   UNL     1      -0.645   4.018   0.000  0.00  0.00    +0.000 C 
ATOM      8  N   UNL     1      -0.645   5.505   0.000  0.00  0.00    +0.000 NA
ENDROOT
BRANCH   7  13
ATOM      9  C   UNL     1       0.070   1.956   0.000  0.00  0.00    +0.000 A 
ATOM     10  C   UNL     1       0.070   2.781   0.000  0.00  0.00    +0.000 A 
ATOM     11  C   UNL     1      -0.645   1.543   0.000  0.00  0.00    +0.000 A 
ATOM     12  C   UNL     1      -1.359   2.781   0.000  0.00  0.00    +0.000 A 
ATOM     13  C   UNL     1      -0.645   3.193   0.000  0.00  0.00    +0.000 A 
ATOM     14  C   UNL     1      -1.359   1.956   0.000  0.00  0.00    +0.000 A 
ATOM     15  O   UNL     1      -2.074   1.543   0.000  0.00  0.00    +0.000 OA
ENDBRANCH   7  13
BRANCH   7  17
ATOM     16  C   UNL     1      -2.010   4.439   0.000  0.00  0.00    +0.000 C 
ATOM     17  C   UNL     1      -1.449   3.835   0.000  0.00  0.00    +0.000 C 
ENDBRANCH   7  17
TORSDOF 2
