REMARK  Name = 
REMARK  3 active torsions:
REMARK  status: ('A' for Active; 'I' for Inactive)
REMARK    1  A    between atoms: O_2  and  C_3
REMARK    2  A    between atoms: C_9  and  C_10
REMARK    3  A    between atoms: C_19  and  C_21
REMARK                            x       y       z     vdW  Elec       q    Type
REMARK                         _______ _______ _______ _____ _____    ______ ____
ROOT
ATOM      1  C   UNL     1      -0.143  -0.030   0.000  0.00  0.00    +0.000 C 
ATOM      2  F   UNL     1       0.192   0.723   0.000  0.00  0.00    +0.000 F 
ATOM      3  C   UNL     1      -0.628  -0.698   0.000  0.00  0.00    +0.000 C 
ATOM      4  O   UNL     1      -1.453  -0.698   0.000  0.00  0.00    +0.000 OA
ATOM      5  N   UNL     1      -0.143  -1.365   0.000  0.00  0.00    +0.000 NA
ATOM      6  C   UNL     1       0.641  -1.110   0.000  0.00  0.00    +0.000 A 
ATOM      7  C   UNL     1       0.641  -0.285   0.000  0.00  0.00    +0.000 A 
ATOM      8  C   UNL     1       1.356   0.127   0.000  0.00  0.00    +0.000 A 
ATOM      9  C   UNL     1       2.070  -0.285   0.000  0.00  0.00    +0.000 A 
ATOM     10  C   UNL     1       2.070  -1.110   0.000  0.00  0.00    +0.000 A 
ATOM     11  C   UNL     1       1.356  -1.523   0.000  0.00  0.00    +0.000 A 
ENDROOT
BRANCH   1  18
ATOM     12  C   UNL     1      -0.858   1.207   0.000  0.00  0.00    +0.000 A 
ATOM     13  C   UNL     1      -1.572   1.619   0.000  0.00  0.00    +0.000 A 
ATOM     14  C   UNL     1      -2.287   1.207   0.000  0.00  0.00    +0.000 A 
ATOM     15  C   UNL     1      -2.287   0.382   0.000  0.00  0.00    +0.000 A 
ATOM     16 CL   UNL     1      -3.001  -0.030   0.000  0.00  0.00    +0.000 Cl
ATOM     17  C   UNL     1      -1.572  -0.030   0.000  0.00  0.00    +0.000 A 
ATOM     18  C   UNL     1      -0.858   0.382   0.000  0.00  0.00    +0.000 A 
BRANCH  12  20
ATOM     19  C   UNL     1      -0.143   2.445   0.000  0.00  0.00    +0.000 C 
ATOM     20  O   UNL     1      -0.143   1.619   0.000  0.00  0.00    +0.000 OA
ENDBRANCH  12  20
ENDBRANCH   1  18
BRANCH  10  21
ATOM     21  C   UNL     1       2.784  -1.523   0.000  0.00  0.00    +0.000 C 
ATOM     22  F   UNL     1       3.499  -1.935   0.000  0.00  0.00    +0.000 F 
ATOM     23  F   UNL     1       2.372  -2.237   0.000  0.00  0.00    +0.000 F 
ATOM     24  F   UNL     1       3.197  -0.808   0.000  0.00  0.00    +0.000 F 
ENDBRANCH  10  21
TORSDOF 3
