REMARK  Name = 
REMARK  5 active torsions:
REMARK  status: ('A' for Active; 'I' for Inactive)
REMARK    1  A    between atoms: C_6  and  O_8
REMARK    2  A    between atoms: N_10  and  S_11
REMARK    3  A    between atoms: S_11  and  C_14
REMARK    4  A    between atoms: C_19  and  C_20
REMARK    5  A    between atoms: C_23  and  C_26
REMARK                            x       y       z     vdW  Elec       q    Type
REMARK                         _______ _______ _______ _____ _____    ______ ____
ROOT
ATOM      1  C   UNL     1       0.000   7.179   0.000  0.00  0.00    +0.000 A 
ATOM      2  C   UNL     1       0.000   8.004   0.000  0.00  0.00    +0.000 A 
ATOM      3  C   UNL     1       0.715   8.416   0.000  0.00  0.00    +0.000 A 
ATOM      4  C   UNL     1       1.429   8.004   0.000  0.00  0.00    +0.000 A 
ATOM      5  N   UNL     1       1.429   7.179   0.000  0.00  0.00    +0.000 NA
ATOM      6  C   UNL     1       0.715   6.766   0.000  0.00  0.00    +0.000 A 
ENDROOT
BRANCH   6   7
ATOM      7  C   UNL     1       0.715   5.941   0.000  0.00  0.00    +0.000 A 
ATOM      8  C   UNL     1       1.429   5.529   0.000  0.00  0.00    +0.000 A 
ATOM      9  C   UNL     1       1.429   4.704   0.000  0.00  0.00    +0.000 A 
ATOM     10  C   UNL     1       0.715   4.291   0.000  0.00  0.00    +0.000 A 
ATOM     11  C   UNL     1       0.000   4.704   0.000  0.00  0.00    +0.000 A 
ATOM     12  C   UNL     1       0.000   5.529   0.000  0.00  0.00    +0.000 A 
BRANCH  10  13
ATOM     13  C   UNL     1       0.715   3.466   0.000  0.00  0.00    +0.000 A 
ATOM     14  N   UNL     1       1.382   2.981   0.000  0.00  0.00    +0.000 NA
ATOM     15  N   UNL     1       1.127   2.196   0.000  0.00  0.00    +0.000 NA
ATOM     16  C   UNL     1       0.302   2.196   0.000  0.00  0.00    +0.000 A 
ATOM     17  O   UNL     1       0.047   2.981   0.000  0.00  0.00    +0.000 OA
ENDBRANCH  10  13
ENDBRANCH   6   7
BRANCH   1  18
ATOM     18  S   UNL     1      -0.715   6.766   0.000  0.00  0.00    +0.000 S 
ATOM     19  O   UNL     1      -0.302   6.052   0.000  0.00  0.00    +0.000 OA
ATOM     20  O   UNL     1      -1.127   7.481   0.000  0.00  0.00    +0.000 OA
BRANCH  18  28
ATOM     21  C   UNL     1      -4.287   8.004   0.000  0.00  0.00    +0.000 C 
ATOM     22  C   UNL     1      -3.572   7.591   0.000  0.00  0.00    +0.000 A 
ATOM     23  C   UNL     1      -2.858   8.004   0.000  0.00  0.00    +0.000 A 
ATOM     24  N   UNL     1      -2.143   7.591   0.000  0.00  0.00    +0.000 NA
ATOM     25  C   UNL     1      -2.143   6.766   0.000  0.00  0.00    +0.000 A 
ATOM     26  C   UNL     1      -2.858   6.354   0.000  0.00  0.00    +0.000 A 
ATOM     27  N   UNL     1      -3.572   6.766   0.000  0.00  0.00    +0.000 NA
ATOM     28  N   UNL     1      -1.429   6.354   0.000  0.00  0.00    +0.000 NA
BRANCH  26  29
ATOM     29  O   UNL     1      -2.858   5.529   0.000  0.00  0.00    +0.000 OA
ATOM     30  C   UNL     1      -3.572   5.116   0.000  0.00  0.00    +0.000 C 
ENDBRANCH  26  29
ENDBRANCH  18  28
ENDBRANCH   1  18
TORSDOF 5
