REMARK  Name = 
REMARK  0 active torsions:
REMARK  status: ('A' for Active; 'I' for Inactive)
REMARK                            x       y       z     vdW  Elec       q    Type
REMARK                         _______ _______ _______ _____ _____    ______ ____
ROOT
ATOM      1  C   UNL     1      -3.528  -0.746   0.000  0.00  0.00    +0.000 C 
ATOM      2  C   UNL     1      -2.813  -1.984   0.000  0.00  0.00    +0.000 C 
ATOM      3  C   UNL     1      -1.384  -1.984   0.000  0.00  0.00    +0.000 C 
ATOM      4  C   UNL     1      -0.670  -1.571   0.000  0.00  0.00    +0.000 C 
ATOM      5  C   UNL     1      -0.670   0.904   0.000  0.00  0.00    +0.000 C 
ATOM      6  C   UNL     1      -1.384   0.491   0.000  0.00  0.00    +0.000 C 
ATOM      7  C   UNL     1       0.829  -0.589   0.000  0.00  0.00    +0.000 C 
ATOM      8  C   UNL     1      -2.813  -0.334   0.000  0.00  0.00    +0.000 C 
ATOM      9  C   UNL     1      -3.528  -1.571   0.000  0.00  0.00    +0.000 C 
ATOM     10  O   UNL     1      -4.242  -1.984   0.000  0.00  0.00    +0.000 OA
ATOM     11  C   UNL     1       1.314   0.079   0.000  0.00  0.00    +0.000 C 
ATOM     12  O   UNL     1       2.099   0.334   0.000  0.00  0.00    +0.000 OA
ATOM     13  C   UNL     1      -1.384  -0.334   0.000  0.00  0.00    +0.000 C 
ATOM     14  C   UNL     1       0.045  -0.334   0.000  0.00  0.00    +0.000 C 
ATOM     15  C   UNL     1       0.829   0.746   0.000  0.00  0.00    +0.000 C 
ATOM     16  C   UNL     1       0.045   0.491   0.000  0.00  0.00    +0.000 C 
ATOM     17  C   UNL     1       0.045   1.316   0.000  0.00  0.00    +0.000 C 
ATOM     18  C   UNL     1      -0.670  -0.746   0.000  0.00  0.00    +0.000 C 
ATOM     19  C   UNL     1      -2.099  -0.746   0.000  0.00  0.00    +0.000 C 
ATOM     20  C   UNL     1      -2.099   0.079   0.000  0.00  0.00    +0.000 C 
ATOM     21  C   UNL     1      -2.099  -1.571   0.000  0.00  0.00    +0.000 C 
ATOM     22  C   UNL     1       1.314   1.414   0.000  0.00  0.00    +0.000 C 
ATOM     23  C   UNL     1       1.130   2.239   0.000  0.00  0.00    +0.000 C 
ATOM     24  C   UNL     1       2.813   0.746   0.000  0.00  0.00    +0.000 C 
ATOM     25  C   UNL     1       3.528   1.159   0.000  0.00  0.00    +0.000 C 
ATOM     26  C   UNL     1       2.813   2.396   0.000  0.00  0.00    +0.000 C 
ATOM     27  C   UNL     1       2.099   1.159   0.000  0.00  0.00    +0.000 C 
ATOM     28  O   UNL     1       2.099   1.984   0.000  0.00  0.00    +0.000 OA
ATOM     29  C   UNL     1       3.528   1.984   0.000  0.00  0.00    +0.000 C 
ATOM     30  C   UNL     1       4.242   2.396   0.000  0.00  0.00    +0.000 C 
ENDROOT
TORSDOF 0
