REMARK  Name = 
REMARK  4 active torsions:
REMARK  status: ('A' for Active; 'I' for Inactive)
REMARK    1  A    between atoms: C_1  and  C_2
REMARK    2  A    between atoms: C_1  and  C_5
REMARK    3  A    between atoms: C_2  and  C_6
REMARK    4  A    between atoms: C_6  and  C_11
REMARK                            x       y       z     vdW  Elec       q    Type
REMARK                         _______ _______ _______ _____ _____    ______ ____
ROOT
ATOM      1  C   UNL     1      -0.706   0.408   0.000  0.00  0.00    +0.000 C 
ATOM      2  C   UNL     1      -1.417  -0.000   0.000  0.00  0.00    +0.000 C 
ATOM      3  C   UNL     1       0.015  -0.000   0.000  0.00  0.00    +0.000 C 
ATOM      4  C   UNL     1      -1.417  -0.831   0.000  0.00  0.00    +0.000 C 
ATOM      5  C   UNL     1       0.015  -0.831   0.000  0.00  0.00    +0.000 C 
ATOM      6  C   UNL     1      -0.706  -1.251   0.000  0.00  0.00    +0.000 C 
ATOM      7  O   UNL     1      -1.425  -1.659   0.000  0.00  0.00    +0.000 OA
ENDROOT
BRANCH   1   8
ATOM      8  C   UNL     1      -1.425   0.820   0.000  0.00  0.00    +0.000 C 
ATOM      9  O   UNL     1      -1.425   1.643   0.000  0.00  0.00    +0.000 OA
ATOM     10  O   UNL     1      -2.135   0.408   0.000  0.00  0.00    +0.000 OA
ENDBRANCH   1   8
BRANCH   1  11
ATOM     11  C   UNL     1      -0.004   0.824   0.000  0.00  0.00    +0.000 C 
BRANCH  11  12
ATOM     12  C   UNL     1       0.714   0.419   0.000  0.00  0.00    +0.000 C 
ATOM     13  O   UNL     1       0.722  -0.401   0.000  0.00  0.00    +0.000 OA
BRANCH  12  14
ATOM     14  C   UNL     1       1.421   0.839   0.000  0.00  0.00    +0.000 C 
ATOM     15  O   UNL     1       2.135   0.434   0.000  0.00  0.00    +0.000 OA
ATOM     16  O   UNL     1       1.409   1.663   0.000  0.00  0.00    +0.000 OA
ENDBRANCH  12  14
ENDBRANCH  11  12
ENDBRANCH   1  11
TORSDOF 4
