REMARK  Name = 
REMARK  11 active torsions:
REMARK  status: ('A' for Active; 'I' for Inactive)
REMARK    1  A    between atoms: C_5  and  S_8
REMARK    2  A    between atoms: S_8  and  N_11
REMARK    3  A    between atoms: N_11  and  C_12
REMARK    4  A    between atoms: C_13  and  O_33
REMARK    5  A    between atoms: C_14  and  O_29
REMARK    6  A    between atoms: C_16  and  C_18
REMARK    7  A    between atoms: C_22  and  C_24
REMARK    8  A    between atoms: O_29  and  C_30
REMARK    9  A    between atoms: C_30  and  C_31
REMARK   10  A    between atoms: O_33  and  C_34
REMARK   11  A    between atoms: C_39  and  O_40
REMARK                            x       y       z     vdW  Elec       q    Type
REMARK                         _______ _______ _______ _____ _____    ______ ____
ROOT
ATOM      1  C   UNL     1      -7.038   2.290   0.000  0.00  0.00    +0.000 A 
ATOM      2  C   UNL     1      -7.753   1.878   0.000  0.00  0.00    +0.000 A 
ATOM      3  C   UNL     1      -7.753   1.053   0.000  0.00  0.00    +0.000 A 
ATOM      4  N   UNL     1      -7.038   0.640   0.000  0.00  0.00    +0.000 NA
ATOM      5  C   UNL     1      -6.324   1.053   0.000  0.00  0.00    +0.000 A 
ATOM      6  N   UNL     1      -6.324   1.878   0.000  0.00  0.00    +0.000 NA
ENDROOT
BRANCH   5   7
ATOM      7  C   UNL     1      -5.609   0.640   0.000  0.00  0.00    +0.000 A 
ATOM      8  C   UNL     1      -4.895   1.053   0.000  0.00  0.00    +0.000 A 
ATOM      9  C   UNL     1      -4.180   0.640   0.000  0.00  0.00    +0.000 A 
ATOM     10  N   UNL     1      -4.180  -0.185   0.000  0.00  0.00    +0.000 NA
ATOM     11  C   UNL     1      -4.895  -0.597   0.000  0.00  0.00    +0.000 A 
ATOM     12  C   UNL     1      -5.609  -0.185   0.000  0.00  0.00    +0.000 A 
BRANCH  11  13
ATOM     13  C   UNL     1      -4.895  -1.422   0.000  0.00  0.00    +0.000 A 
ATOM     14  N   UNL     1      -4.227  -1.907   0.000  0.00  0.00    +0.000 NA
ATOM     15  N   UNL     1      -4.482  -2.692   0.000  0.00  0.00    +0.000 NA
ATOM     16  N   UNL     1      -5.307  -2.692   0.000  0.00  0.00    +0.000 NA
ATOM     17  N   UNL     1      -5.562  -1.907   0.000  0.00  0.00    +0.000 NA
ENDBRANCH  11  13
ENDBRANCH   5   7
BRANCH   2  18
ATOM     18  O   UNL     1      -8.467   2.290   0.000  0.00  0.00    +0.000 OA
BRANCH  18  19
ATOM     19  C   UNL     1      -9.181   1.878   0.000  0.00  0.00    +0.000 A 
ATOM     20  C   UNL     1      -9.181   1.053   0.000  0.00  0.00    +0.000 A 
ATOM     21  C   UNL     1      -9.896   0.640   0.000  0.00  0.00    +0.000 A 
ATOM     22  C   UNL     1     -10.610   1.053   0.000  0.00  0.00    +0.000 A 
ATOM     23  C   UNL     1     -10.610   1.878   0.000  0.00  0.00    +0.000 A 
ATOM     24  C   UNL     1      -9.896   2.290   0.000  0.00  0.00    +0.000 A 
BRANCH  24  25
ATOM     25  O   UNL     1      -9.896   3.115   0.000  0.00  0.00    +0.000 OA
ATOM     26  C   UNL     1      -9.181   3.528   0.000  0.00  0.00    +0.000 C 
ENDBRANCH  24  25
ENDBRANCH  18  19
ENDBRANCH   2  18
BRANCH   1  27
ATOM     27  N   UNL     1      -7.038   3.115   0.000  0.00  0.00    +0.000 NA
BRANCH  27  28
ATOM     28  S   UNL     1      -7.753   3.528   0.000  0.00  0.00    +0.000 S 
ATOM     29  O   UNL     1      -8.165   2.813   0.000  0.00  0.00    +0.000 OA
ATOM     30  O   UNL     1      -8.467   3.940   0.000  0.00  0.00    +0.000 OA
BRANCH  28  35
ATOM     31  C   UNL     1      -6.103   6.386   0.000  0.00  0.00    +0.000 C 
ATOM     32  C   UNL     1      -6.515   5.671   0.000  0.00  0.00    +0.000 A 
ATOM     33  C   UNL     1      -6.103   4.957   0.000  0.00  0.00    +0.000 A 
ATOM     34  C   UNL     1      -6.515   4.242   0.000  0.00  0.00    +0.000 A 
ATOM     35  C   UNL     1      -7.340   4.242   0.000  0.00  0.00    +0.000 A 
ATOM     36  N   UNL     1      -7.753   4.957   0.000  0.00  0.00    +0.000 NA
ATOM     37  C   UNL     1      -7.340   5.671   0.000  0.00  0.00    +0.000 A 
ENDBRANCH  28  35
ENDBRANCH  27  28
ENDBRANCH   1  27
BRANCH   3  38
ATOM     38  O   UNL     1      -8.467   0.640   0.000  0.00  0.00    +0.000 OA
BRANCH  38  39
ATOM     39  C   UNL     1      -8.467  -0.185   0.000  0.00  0.00    +0.000 C 
BRANCH  39  40
ATOM     40  C   UNL     1      -9.181  -0.597   0.000  0.00  0.00    +0.000 C 
ATOM     41  O   UNL     1      -9.181  -1.422   0.000  0.00  0.00    +0.000 OA
ENDBRANCH  39  40
ENDBRANCH  38  39
ENDBRANCH   3  38
TORSDOF 11
