REMARK  Name = 
REMARK  4 active torsions:
REMARK  status: ('A' for Active; 'I' for Inactive)
REMARK    1  A    between atoms: C_2  and  N_8
REMARK    2  A    between atoms: C_5  and  C_11
REMARK    3  A    between atoms: C_11  and  O_12
REMARK    4  A    between atoms: O_12  and  S_16
REMARK                            x       y       z     vdW  Elec       q    Type
REMARK                         _______ _______ _______ _____ _____    ______ ____
ROOT
ATOM      1  C   UNL     1       1.432   0.676   0.000  0.00  0.00    +0.000 C 
ATOM      2  C   UNL     1       1.432  -0.149   0.000  0.00  0.00    +0.000 C 
ATOM      3  O   UNL     1       0.717   1.089   0.000  0.00  0.00    +0.000 OA
ATOM      4  C   UNL     1       0.717  -0.561   0.000  0.00  0.00    +0.000 C 
ATOM      5  C   UNL     1       0.003   0.676   0.000  0.00  0.00    +0.000 C 
ATOM      6  C   UNL     1       0.003  -0.149   0.000  0.00  0.00    +0.000 C 
ATOM      7  O   UNL     1       2.146   1.089   0.000  0.00  0.00    +0.000 OA
ATOM      8  O   UNL     1       0.717  -1.386   0.000  0.00  0.00    +0.000 OA
ATOM      9  O   UNL     1      -0.712  -0.561   0.000  0.00  0.00    +0.000 OA
ENDROOT
BRANCH   2  10
ATOM     10  N   UNL     1       2.146  -0.561   0.000  0.00  0.00    +0.000 NA
ATOM     11  C   UNL     1       2.146  -1.386   0.000  0.00  0.00    +0.000 C 
ATOM     12  O   UNL     1       2.861  -1.799   0.000  0.00  0.00    +0.000 OA
ATOM     13  C   UNL     1       1.432  -1.799   0.000  0.00  0.00    +0.000 C 
ENDBRANCH   2  10
BRANCH   5  14
ATOM     14  C   UNL     1      -0.712   1.089   0.000  0.00  0.00    +0.000 C 
BRANCH  14  15
ATOM     15  O   UNL     1      -1.426   0.676   0.000  0.00  0.00    +0.000 OA
BRANCH  15  16
ATOM     16  S   UNL     1      -2.145   1.084   0.000  0.00  0.00    +0.000 S 
ATOM     17  O   UNL     1      -2.861   0.676   0.000  0.00  0.00    +0.000 OA
ATOM     18  O   UNL     1      -2.558   1.798   0.000  0.00  0.00    +0.000 OA
ATOM     19  O   UNL     1      -1.733   1.799   0.000  0.00  0.00    +0.000 OA
ENDBRANCH  15  16
ENDBRANCH  14  15
ENDBRANCH   5  14
TORSDOF 4
