REMARK  Name = 
REMARK  4 active torsions:
REMARK  status: ('A' for Active; 'I' for Inactive)
REMARK    1  A    between atoms: O_2  and  C_3
REMARK    2  A    between atoms: C_15  and  O_16
REMARK    3  A    between atoms: O_16  and  C_17
REMARK    4  A    between atoms: C_38  and  O_39
REMARK                            x       y       z     vdW  Elec       q    Type
REMARK                         _______ _______ _______ _____ _____    ______ ____
ROOT
ATOM      1  C   UNL     1       0.896  -3.355   0.000  0.00  0.00    +0.000 A 
ATOM      2  C   UNL     1       1.468  -2.761   0.000  0.00  0.00    +0.000 A 
ATOM      3  C   UNL     1       1.240  -1.969   0.000  0.00  0.00    +0.000 A 
ATOM      4  C   UNL     1       1.677  -1.270   0.000  0.00  0.00    +0.000 A 
ATOM      5  C   UNL     1       2.491  -1.125   0.000  0.00  0.00    +0.000 C 
ATOM      6  C   UNL     1       2.772  -0.349   0.000  0.00  0.00    +0.000 C 
ATOM      7  N   UNL     1       2.241   0.281   0.000  0.00  0.00    +0.000 NA
ATOM      8  C   UNL     1       1.430   0.138   0.000  0.00  0.00    +0.000 C 
ATOM      9  C   UNL     1       1.430   0.962   0.000  0.00  0.00    +0.000 C 
ATOM     10  S   UNL     1       0.715   1.375   0.000  0.00  0.00    +0.000 S 
ATOM     11  C   UNL     1       0.712   2.200   0.000  0.00  0.00    +0.000 C 
ATOM     12  C   UNL     1       1.427   2.612   0.000  0.00  0.00    +0.000 A 
ATOM     13  C   UNL     1       2.142   2.200   0.000  0.00  0.00    +0.000 A 
ATOM     14  C   UNL     1       2.857   2.612   0.000  0.00  0.00    +0.000 A 
ATOM     15  C   UNL     1       3.572   2.203   0.000  0.00  0.00    +0.000 C 
ATOM     16  C   UNL     1       2.857   3.437   0.000  0.00  0.00    +0.000 A 
ATOM     17  O   UNL     1       3.467   3.990   0.000  0.00  0.00    +0.000 OA
ATOM     18  C   UNL     1       3.132   4.743   0.000  0.00  0.00    +0.000 C 
ATOM     19  O   UNL     1       2.313   4.658   0.000  0.00  0.00    +0.000 OA
ATOM     20  C   UNL     1       2.142   3.850   0.000  0.00  0.00    +0.000 A 
ATOM     21  C   UNL     1       1.427   3.437   0.000  0.00  0.00    +0.000 A 
ATOM     22  C   UNL     1       0.712   3.850   0.000  0.00  0.00    +0.000 C 
ATOM     23  N   UNL     1      -0.003   3.437   0.000  0.00  0.00    +0.000 NA
ATOM     24  C   UNL     1      -0.718   3.850   0.000  0.00  0.00    +0.000 C 
ATOM     25  O   UNL     1      -0.718   4.675   0.000  0.00  0.00    +0.000 OA
ATOM     26  C   UNL     1      -1.430   3.434   0.000  0.00  0.00    +0.000 C 
ATOM     27  C   UNL     1      -2.145   3.022   0.000  0.00  0.00    +0.000 C 
ATOM     28  C   UNL     1      -2.145   2.197   0.000  0.00  0.00    +0.000 A 
ATOM     29  C   UNL     1      -2.860   1.785   0.000  0.00  0.00    +0.000 A 
ATOM     30  C   UNL     1      -2.857   0.960   0.000  0.00  0.00    +0.000 A 
ATOM     31  C   UNL     1      -3.572   0.547   0.000  0.00  0.00    +0.000 C 
ATOM     32  C   UNL     1      -2.142   0.547   0.000  0.00  0.00    +0.000 A 
ATOM     33  C   UNL     1      -1.430   0.960   0.000  0.00  0.00    +0.000 A 
ATOM     34  O   UNL     1      -0.715   0.550   0.000  0.00  0.00    +0.000 OA
ATOM     35  C   UNL     1      -1.430   1.785   0.000  0.00  0.00    +0.000 A 
ATOM     36  C   UNL     1      -0.715   2.200   0.000  0.00  0.00    +0.000 C 
ATOM     37  N   UNL     1      -1.482   2.615   0.000  0.00  0.00    +0.000 NA
ATOM     38  C   UNL     1      -0.704   3.102   0.000  0.00  0.00    +0.000 C 
ATOM     39  C   UNL     1       0.000   2.612   0.000  0.00  0.00    +0.000 C 
ATOM     40  C   UNL     1       0.619   4.488   0.000  0.00  0.00    +0.000 C 
ATOM     41  O   UNL     1      -0.162   1.323   0.000  0.00  0.00    +0.000 OA
ATOM     42  C   UNL     1       0.616   0.281   0.000  0.00  0.00    +0.000 C 
ATOM     43  O   UNL     1      -0.099  -0.341   0.000  0.00  0.00    +0.000 OA
ATOM     44  C   UNL     1       1.147  -0.638   0.000  0.00  0.00    +0.000 A 
ATOM     45  N   UNL     1       0.382  -0.946   0.000  0.00  0.00    +0.000 NA
ATOM     46  C   UNL     1       0.440  -1.771   0.000  0.00  0.00    +0.000 A 
ATOM     47  C   UNL     1      -0.132  -2.365   0.000  0.00  0.00    +0.000 A 
ATOM     48  C   UNL     1       0.096  -3.157   0.000  0.00  0.00    +0.000 A 
ENDROOT
BRANCH   1  50
ATOM     49  C   UNL     1       0.553  -4.743   0.000  0.00  0.00    +0.000 C 
ATOM     50  O   UNL     1       1.125  -4.149   0.000  0.00  0.00    +0.000 OA
ENDBRANCH   1  50
BRANCH  32  51
ATOM     51  O   UNL     1      -2.142  -0.278   0.000  0.00  0.00    +0.000 OA
ATOM     52  C   UNL     1      -1.427  -0.690   0.000  0.00  0.00    +0.000 C 
ENDBRANCH  32  51
BRANCH  13  53
ATOM     53  O   UNL     1       2.142   1.375   0.000  0.00  0.00    +0.000 OA
BRANCH  53  54
ATOM     54  C   UNL     1       2.917   1.095   0.000  0.00  0.00    +0.000 C 
ATOM     55  C   UNL     1       3.550   1.625   0.000  0.00  0.00    +0.000 C 
ATOM     56  O   UNL     1       3.063   0.281   0.000  0.00  0.00    +0.000 OA
ENDBRANCH  53  54
ENDBRANCH  13  53
TORSDOF 4
