REMARK  Name = 
REMARK  5 active torsions:
REMARK  status: ('A' for Active; 'I' for Inactive)
REMARK    1  A    between atoms: C_2  and  C_6
REMARK    2  A    between atoms: C_6  and  C_10
REMARK    3  A    between atoms: C_10  and  N_12
REMARK    4  A    between atoms: C_17  and  N_18
REMARK    5  A    between atoms: C_19  and  C_20
REMARK                            x       y       z     vdW  Elec       q    Type
REMARK                         _______ _______ _______ _____ _____    ______ ____
ROOT
ATOM      1  N   UNL     1       0.321   0.823   0.000  0.00  0.00    +0.000 NA
ATOM      2  C   UNL     1      -0.231   0.210   0.000  0.00  0.00    +0.000 C 
ATOM      3  C   UNL     1       1.128   0.651   0.000  0.00  0.00    +0.000 C 
ATOM      4  C   UNL     1       0.024  -0.575   0.000  0.00  0.00    +0.000 C 
ATOM      5  C   UNL     1       1.383  -0.133   0.000  0.00  0.00    +0.000 C 
ATOM      6  C   UNL     1       0.831  -0.746   0.000  0.00  0.00    +0.000 C 
ENDROOT
BRANCH   6   7
ATOM      7  N   UNL     1       1.086  -1.531   0.000  0.00  0.00    +0.000 NA
ATOM      8  C   UNL     1       1.893  -1.702   0.000  0.00  0.00    +0.000 C 
ATOM      9  O   UNL     1       2.445  -1.089   0.000  0.00  0.00    +0.000 OA
BRANCH   8  10
ATOM     10  C   UNL     1       2.147  -2.487   0.000  0.00  0.00    +0.000 A 
ATOM     11  C   UNL     1       1.595  -3.100   0.000  0.00  0.00    +0.000 A 
ATOM     12  C   UNL     1       2.954  -2.658   0.000  0.00  0.00    +0.000 A 
ATOM     13  C   UNL     1       1.850  -3.885   0.000  0.00  0.00    +0.000 A 
ATOM     14  C   UNL     1       3.209  -3.443   0.000  0.00  0.00    +0.000 A 
ATOM     15  C   UNL     1       2.657  -4.056   0.000  0.00  0.00    +0.000 A 
ENDBRANCH   8  10
ENDBRANCH   6   7
BRANCH   1  16
ATOM     16  C   UNL     1       0.066   1.608   0.000  0.00  0.00    +0.000 C 
BRANCH  16  17
ATOM     17  C   UNL     1      -0.741   1.779   0.000  0.00  0.00    +0.000 C 
BRANCH  17  19
ATOM     18  C   UNL     1      -1.780   2.819   0.000  0.00  0.00    +0.000 A 
ATOM     19  C   UNL     1      -0.996   2.564   0.000  0.00  0.00    +0.000 A 
ATOM     20  C   UNL     1      -1.780   3.644   0.000  0.00  0.00    +0.000 A 
ATOM     21  C   UNL     1      -2.495   2.406   0.000  0.00  0.00    +0.000 A 
ATOM     22  C   UNL     1      -0.511   3.231   0.000  0.00  0.00    +0.000 A 
ATOM     23  N   UNL     1      -0.996   3.898   0.000  0.00  0.00    +0.000 NA
ATOM     24  C   UNL     1      -2.495   4.056   0.000  0.00  0.00    +0.000 A 
ATOM     25  C   UNL     1      -3.209   2.819   0.000  0.00  0.00    +0.000 A 
ATOM     26  C   UNL     1      -3.209   3.644   0.000  0.00  0.00    +0.000 A 
ENDBRANCH  17  19
ENDBRANCH  16  17
ENDBRANCH   1  16
TORSDOF 5
