REMARK  Name = 
REMARK  4 active torsions:
REMARK  status: ('A' for Active; 'I' for Inactive)
REMARK    1  A    between atoms: C_6  and  C_7
REMARK    2  A    between atoms: N_15  and  C_22
REMARK    3  A    between atoms: C_16  and  C_17
REMARK    4  A    between atoms: C_25  and  C_29
REMARK                            x       y       z     vdW  Elec       q    Type
REMARK                         _______ _______ _______ _____ _____    ______ ____
ROOT
ATOM      1  C   UNL     1       4.780   1.114   0.000  0.00  0.00    +0.000 A 
ATOM      2  C   UNL     1       3.956   1.139   0.000  0.00  0.00    +0.000 A 
ATOM      3  C   UNL     1       3.521   0.438   0.000  0.00  0.00    +0.000 A 
ATOM      4  C   UNL     1       3.911  -0.289   0.000  0.00  0.00    +0.000 A 
ATOM      5  C   UNL     1       4.736  -0.315   0.000  0.00  0.00    +0.000 A 
ATOM      6  C   UNL     1       5.170   0.387   0.000  0.00  0.00    +0.000 A 
ATOM      7  C   UNL     1       3.477  -0.990   0.000  0.00  0.00    +0.000 C 
ATOM      8  C   UNL     1       2.652  -0.964   0.000  0.00  0.00    +0.000 C 
ATOM      9  C   UNL     1       2.262  -0.237   0.000  0.00  0.00    +0.000 C 
ATOM     10  C   UNL     1       2.697   0.464   0.000  0.00  0.00    +0.000 C 
ATOM     11  N   UNL     1       2.164   1.094   0.000  0.00  0.00    +0.000 NA
ATOM     12  N   UNL     1       1.400   0.782   0.000  0.00  0.00    +0.000 N 
ATOM     13  C   UNL     1       1.461  -0.041   0.000  0.00  0.00    +0.000 C 
ENDROOT
BRANCH  12  14
ATOM     14  C   UNL     1       0.699   1.217   0.000  0.00  0.00    +0.000 A 
ATOM     15  C   UNL     1      -0.028   0.827   0.000  0.00  0.00    +0.000 A 
ATOM     16  C   UNL     1      -0.729   1.261   0.000  0.00  0.00    +0.000 A 
ATOM     17  C   UNL     1      -0.704   2.086   0.000  0.00  0.00    +0.000 A 
ATOM     18  C   UNL     1       0.024   2.476   0.000  0.00  0.00    +0.000 A 
ATOM     19  C   UNL     1       0.725   2.041   0.000  0.00  0.00    +0.000 A 
ATOM     20 CL   UNL     1       0.049   3.301   0.000  0.00  0.00    +0.000 Cl
BRANCH  17  21
ATOM     21  C   UNL     1      -1.405   2.521   0.000  0.00  0.00    +0.000 C 
ATOM     22  N   UNL     1      -2.106   2.955   0.000  0.00  0.00    +0.000 NA
ENDBRANCH  17  21
ENDBRANCH  12  14
BRANCH  13  23
ATOM     23  C   UNL     1       0.831  -0.573   0.000  0.00  0.00    +0.000 C 
ATOM     24  C   UNL     1       0.891  -1.396   0.000  0.00  0.00    +0.000 C 
ATOM     25  C   UNL     1       0.128  -1.708   0.000  0.00  0.00    +0.000 C 
ATOM     26  C   UNL     1      -0.405  -1.078   0.000  0.00  0.00    +0.000 C 
ATOM     27  C   UNL     1       0.029  -0.377   0.000  0.00  0.00    +0.000 C 
ENDBRANCH  13  23
BRANCH   6  28
ATOM     28  C   UNL     1       5.995   0.361   0.000  0.00  0.00    +0.000 C 
ATOM     29  O   UNL     1       6.385  -0.366   0.000  0.00  0.00    +0.000 OA
ATOM     30  O   UNL     1       6.430   1.062   0.000  0.00  0.00    +0.000 OA
ENDBRANCH   6  28
TORSDOF 4
