REMARK  Name = 
REMARK  1 active torsions:
REMARK  status: ('A' for Active; 'I' for Inactive)
REMARK    1  A    between atoms: C_7  and  C_13
REMARK                            x       y       z     vdW  Elec       q    Type
REMARK                         _______ _______ _______ _____ _____    ______ ____
ROOT
ATOM      1  C   UNL     1      -0.554   0.254   0.000  0.00  0.00    +0.000 A 
ATOM      2  C   UNL     1      -1.056  -0.401   0.000  0.00  0.00    +0.000 A 
ATOM      3  C   UNL     1       0.268   0.267   0.000  0.00  0.00    +0.000 A 
ATOM      4  C   UNL     1      -1.020   0.948   0.000  0.00  0.00    +0.000 A 
ATOM      5  C   UNL     1      -1.837  -0.115   0.000  0.00  0.00    +0.000 A 
ATOM      6  C   UNL     1      -0.857  -1.196   0.000  0.00  0.00    +0.000 A 
ATOM      7  C   UNL     1       0.800  -0.361   0.000  0.00  0.00    +0.000 A 
ATOM      8  C   UNL     1      -1.816   0.710   0.000  0.00  0.00    +0.000 A 
ATOM      9  C   UNL     1      -0.734   1.720   0.000  0.00  0.00    +0.000 C 
ATOM     10  C   UNL     1      -0.109  -1.545   0.000  0.00  0.00    +0.000 A 
ATOM     11  C   UNL     1      -1.494  -1.720   0.000  0.00  0.00    +0.000 C 
ATOM     12  C   UNL     1       0.632  -1.176   0.000  0.00  0.00    +0.000 A 
ENDROOT
BRANCH   7  13
ATOM     13  C   UNL     1       1.601  -0.173   0.000  0.00  0.00    +0.000 C 
ATOM     14  C   UNL     1       1.837   0.618   0.000  0.00  0.00    +0.000 C 
ENDBRANCH   7  13
TORSDOF 1
