REMARK  Name = 
REMARK  11 active torsions:
REMARK  status: ('A' for Active; 'I' for Inactive)
REMARK    1  A    between atoms: N_7  and  C_17
REMARK    2  A    between atoms: N_8  and  C_16
REMARK    3  A    between atoms: C_10  and  C_14
REMARK    4  A    between atoms: C_15  and  C_16
REMARK    5  A    between atoms: C_16  and  C_18
REMARK    6  A    between atoms: C_17  and  C_19
REMARK    7  A    between atoms: C_17  and  B_31
REMARK    8  A    between atoms: C_18  and  C_21
REMARK    9  A    between atoms: C_19  and  C_20
REMARK   10  A    between atoms: C_20  and  C_22
REMARK   11  A    between atoms: C_22  and  C_24
REMARK                            x       y       z     vdW  Elec       q    Type
REMARK                         _______ _______ _______ _____ _____    ______ ____
ROOT
ATOM      1  O   UNL     1      -1.168  -1.049   0.000  0.00  0.00    +0.000 OA
ATOM      2  N   UNL     1      -0.453   0.189   0.000  0.00  0.00    +0.000 N 
ATOM      3  C   UNL     1       0.300  -0.147   0.000  0.00  0.00    +0.000 C 
ATOM      4  C   UNL     1       0.853   0.466   0.000  0.00  0.00    +0.000 C 
ATOM      5  C   UNL     1       0.440   1.181   0.000  0.00  0.00    +0.000 C 
ATOM      6  C   UNL     1      -0.367   1.009   0.000  0.00  0.00    +0.000 C 
ATOM      7  C   UNL     1      -1.168  -0.224   0.000  0.00  0.00    +0.000 C 
ENDROOT
BRANCH   3  10
ATOM      8  O   UNL     1      -0.141  -1.506   0.000  0.00  0.00    +0.000 OA
ATOM      9  N   UNL     1       1.257  -1.209   0.000  0.00  0.00    +0.000 NA
ATOM     10  C   UNL     1       0.472  -0.954   0.000  0.00  0.00    +0.000 C 
BRANCH   9  11
ATOM     11  C   UNL     1       1.870  -0.657   0.000  0.00  0.00    +0.000 C 
BRANCH  11  14
ATOM     12  O   UNL     1       3.268  -0.360   0.000  0.00  0.00    +0.000 OA
ATOM     13  O   UNL     1       2.826  -1.719   0.000  0.00  0.00    +0.000 OA
ATOM     14  B   UNL     1       2.654  -0.912   0.000  0.00  0.00    +0.000 B 
ENDBRANCH  11  14
BRANCH  11  15
ATOM     15  C   UNL     1       1.698   0.150   0.000  0.00  0.00    +0.000 C 
BRANCH  15  16
ATOM     16  C   UNL     1       2.311   0.702   0.000  0.00  0.00    +0.000 C 
BRANCH  16  17
ATOM     17  C   UNL     1       2.140   1.509   0.000  0.00  0.00    +0.000 C 
BRANCH  17  19
ATOM     18  N   UNL     1       2.581   2.868   0.000  0.00  0.00    +0.000 NA
ATOM     19  C   UNL     1       2.753   2.061   0.000  0.00  0.00    +0.000 C 
ENDBRANCH  17  19
ENDBRANCH  16  17
ENDBRANCH  15  16
ENDBRANCH  11  15
ENDBRANCH   9  11
ENDBRANCH   3  10
BRANCH   7  20
ATOM     20  C   UNL     1      -1.882   0.189   0.000  0.00  0.00    +0.000 C 
BRANCH  20  22
ATOM     21  O   UNL     1      -3.311   1.014   0.000  0.00  0.00    +0.000 OA
ATOM     22  N   UNL     1      -1.882   1.014   0.000  0.00  0.00    +0.000 NA
ATOM     23  C   UNL     1      -2.597   1.426   0.000  0.00  0.00    +0.000 C 
ATOM     24  C   UNL     1      -2.597   2.251   0.000  0.00  0.00    +0.000 C 
ENDBRANCH  20  22
BRANCH  20  25
ATOM     25  C   UNL     1      -2.597  -0.224   0.000  0.00  0.00    +0.000 C 
BRANCH  25  26
ATOM     26  C   UNL     1      -2.597  -1.049   0.000  0.00  0.00    +0.000 A 
ATOM     27  C   UNL     1      -3.311  -1.461   0.000  0.00  0.00    +0.000 A 
ATOM     28  C   UNL     1      -1.882  -1.461   0.000  0.00  0.00    +0.000 A 
ATOM     29  C   UNL     1      -3.311  -2.286   0.000  0.00  0.00    +0.000 A 
ATOM     30  C   UNL     1      -1.882  -2.286   0.000  0.00  0.00    +0.000 A 
ATOM     31  C   UNL     1      -2.597  -2.699   0.000  0.00  0.00    +0.000 A 
ENDBRANCH  25  26
ENDBRANCH  20  25
ENDBRANCH   7  20
TORSDOF 11
