REMARK  Name = 
REMARK  10 active torsions:
REMARK  status: ('A' for Active; 'I' for Inactive)
REMARK    1  A    between atoms: P_1  and  O_5
REMARK    2  A    between atoms: O_5  and  C_23
REMARK    3  A    between atoms: N_16  and  C_25
REMARK    4  A    between atoms: N_17  and  C_28
REMARK    5  A    between atoms: N_17  and  C_30
REMARK    6  A    between atoms: C_21  and  C_23
REMARK    7  A    between atoms: C_25  and  C_26
REMARK    8  A    between atoms: C_26  and  C_27
REMARK    9  A    between atoms: C_27  and  C_28
REMARK   10  A    between atoms: C_28  and  C_29
REMARK                            x       y       z     vdW  Elec       q    Type
REMARK                         _______ _______ _______ _____ _____    ______ ____
ROOT
ATOM      1  O   UNL     1       1.614   0.119   0.000  0.00  0.00    +0.000 OA
ATOM      2  O   UNL     1       0.717   2.057   0.000  0.00  0.00    +0.000 OA
ATOM      3  O   UNL     1       2.512   2.057   0.000  0.00  0.00    +0.000 OA
ATOM      4  O   UNL     1       1.177  -0.848   0.000  0.00  0.00    +0.000 OA
ATOM      5  O   UNL     1      -1.173   0.859   0.000  0.00  0.00    +0.000 OA
ATOM      6  N   UNL     1       0.280   1.089   0.000  0.00  0.00    +0.000 N 
ATOM      7  N   UNL     1      -0.133  -0.180   0.000  0.00  0.00    +0.000 N 
ATOM      8  C   UNL     1       0.947   0.604   0.000  0.00  0.00    +0.000 C 
ATOM      9  C   UNL     1       1.202   1.389   0.000  0.00  0.00    +0.000 C 
ATOM     10  C   UNL     1       2.027   1.389   0.000  0.00  0.00    +0.000 C 
ATOM     11  C   UNL     1       2.282   0.604   0.000  0.00  0.00    +0.000 C 
ATOM     12  C   UNL     1       0.692  -0.180   0.000  0.00  0.00    +0.000 C 
ATOM     13  C   UNL     1      -0.388   0.604   0.000  0.00  0.00    +0.000 C 
ATOM     14  H   UNL     1       0.280   1.601   0.000  0.00  0.00    +0.000 HD
ENDROOT
BRANCH  11  15
ATOM     15  C   UNL     1       3.066   0.349   0.000  0.00  0.00    +0.000 C 
BRANCH  15  16
ATOM     16  O   UNL     1       3.679   0.902   0.000  0.00  0.00    +0.000 OA
BRANCH  16  17
ATOM     17  P   UNL     1       4.464   0.647   0.000  0.00  0.00    +0.000 P 
ATOM     18  O   UNL     1       5.249   0.392   0.000  0.00  0.00    +0.000 OA
ATOM     19  O   UNL     1       4.719   1.431   0.000  0.00  0.00    +0.000 OA
ATOM     20  O   UNL     1       4.209  -0.138   0.000  0.00  0.00    +0.000 OA
ENDBRANCH  16  17
ENDBRANCH  15  16
ENDBRANCH  11  15
BRANCH   7  21
ATOM     21  C   UNL     1      -0.618  -0.848   0.000  0.00  0.00    +0.000 C 
BRANCH  21  22
ATOM     22  C   UNL     1      -1.438  -0.761   0.000  0.00  0.00    +0.000 C 
BRANCH  22  23
ATOM     23  C   UNL     1      -1.923  -1.429   0.000  0.00  0.00    +0.000 C 
BRANCH  23  24
ATOM     24  C   UNL     1      -2.744  -1.343   0.000  0.00  0.00    +0.000 C 
BRANCH  24  27
ATOM     25  O   UNL     1      -3.900  -0.503   0.000  0.00  0.00    +0.000 OA
ATOM     26  O   UNL     1      -2.594   0.079   0.000  0.00  0.00    +0.000 OA
ATOM     27  C   UNL     1      -3.079  -0.589   0.000  0.00  0.00    +0.000 C 
ENDBRANCH  24  27
BRANCH  24  29
ATOM     28  O   UNL     1      -2.893  -2.764   0.000  0.00  0.00    +0.000 OA
ATOM     29  N   UNL     1      -3.229  -2.010   0.000  0.00  0.00    +0.000 NA
BRANCH  29  31
ATOM     30  O   UNL     1      -4.534  -2.591   0.000  0.00  0.00    +0.000 OA
ATOM     31  C   UNL     1      -4.049  -1.924   0.000  0.00  0.00    +0.000 C 
ENDBRANCH  29  31
ENDBRANCH  24  29
ENDBRANCH  23  24
ENDBRANCH  22  23
ENDBRANCH  21  22
ENDBRANCH   7  21
TORSDOF 10
