REMARK  Name = 
REMARK  9 active torsions:
REMARK  status: ('A' for Active; 'I' for Inactive)
REMARK    1  A    between atoms: C_2  and  C_4
REMARK    2  A    between atoms: N_6  and  C_7
REMARK    3  A    between atoms: C_7  and  C_8
REMARK    4  A    between atoms: C_7  and  C_18
REMARK    5  A    between atoms: C_8  and  C_9
REMARK    6  A    between atoms: C_24  and  C_26
REMARK    7  A    between atoms: C_24  and  C_33
REMARK    8  A    between atoms: C_26  and  C_27
REMARK    9  A    between atoms: N_35  and  N_37
REMARK                            x       y       z     vdW  Elec       q    Type
REMARK                         _______ _______ _______ _____ _____    ______ ____
ROOT
ATOM      1  C   UNL     1      -1.460   1.710   0.000  0.00  0.00    +0.000 C 
ATOM      2  O   UNL     1      -2.267   1.882   0.000  0.00  0.00    +0.000 OA
ATOM      3  N   UNL     1      -0.908   2.323   0.000  0.00  0.00    +0.000 N 
ATOM      4  C   UNL     1      -0.101   2.152   0.000  0.00  0.00    +0.000 C 
ATOM      5  C   UNL     1       0.451   2.765   0.000  0.00  0.00    +0.000 C 
ATOM      6  C   UNL     1       0.196   3.550   0.000  0.00  0.00    +0.000 C 
ATOM      7  C   UNL     1      -0.611   3.721   0.000  0.00  0.00    +0.000 C 
ATOM      8  C   UNL     1      -1.163   3.108   0.000  0.00  0.00    +0.000 C 
ENDROOT
BRANCH   7   9
ATOM      9  C   UNL     1      -1.205   4.294   0.000  0.00  0.00    +0.000 C 
ATOM     10  O   UNL     1      -1.998   4.067   0.000  0.00  0.00    +0.000 OA
ATOM     11  N   UNL     1      -1.005   5.095   0.000  0.00  0.00    +0.000 N 
ATOM     12  C   UNL     1      -0.212   5.322   0.000  0.00  0.00    +0.000 C 
BRANCH  11  13
ATOM     13  N   UNL     1      -1.599   5.668   0.000  0.00  0.00    +0.000 NA
ATOM     14  C   UNL     1      -1.399   6.468   0.000  0.00  0.00    +0.000 C 
ATOM     15  C   UNL     1      -2.392   5.440   0.000  0.00  0.00    +0.000 C 
ENDBRANCH  11  13
ENDBRANCH   7   9
BRANCH   1  16
ATOM     16  C   UNL     1      -1.205   0.926   0.000  0.00  0.00    +0.000 C 
BRANCH  16  19
ATOM     17  C   UNL     1      -2.564   0.484   0.000  0.00  0.00    +0.000 C 
ATOM     18  O   UNL     1      -2.819   1.269   0.000  0.00  0.00    +0.000 OA
ATOM     19  N   UNL     1      -1.758   0.313   0.000  0.00  0.00    +0.000 NA
BRANCH  17  21
ATOM     20  C   UNL     1      -3.668  -0.742   0.000  0.00  0.00    +0.000 C 
ATOM     21  C   UNL     1      -3.116  -0.129   0.000  0.00  0.00    +0.000 C 
ATOM     22  C   UNL     1      -3.729   0.423   0.000  0.00  0.00    +0.000 C 
ATOM     23  N   UNL     1      -2.503  -0.681   0.000  0.00  0.00    +0.000 NA
ENDBRANCH  17  21
ENDBRANCH  16  19
BRANCH  16  24
ATOM     24  C   UNL     1      -0.398   0.754   0.000  0.00  0.00    +0.000 C 
BRANCH  24  25
ATOM     25  C   UNL     1      -0.143  -0.030   0.000  0.00  0.00    +0.000 A 
ATOM     26  C   UNL     1      -0.628  -0.698   0.000  0.00  0.00    +0.000 A 
ATOM     27  N   UNL     1      -0.143  -1.365   0.000  0.00  0.00    +0.000 NA
ATOM     28  C   UNL     1       0.641  -1.110   0.000  0.00  0.00    +0.000 A 
ATOM     29  C   UNL     1       0.641  -0.285   0.000  0.00  0.00    +0.000 A 
ATOM     30  C   UNL     1       1.356   0.127   0.000  0.00  0.00    +0.000 A 
ATOM     31  C   UNL     1       2.070  -0.285   0.000  0.00  0.00    +0.000 A 
ATOM     32  C   UNL     1       2.070  -1.110   0.000  0.00  0.00    +0.000 A 
ATOM     33  C   UNL     1       1.356  -1.523   0.000  0.00  0.00    +0.000 A 
ENDBRANCH  24  25
ENDBRANCH  16  24
ENDBRANCH   1  16
BRANCH   7  34
ATOM     34  C   UNL     1      -0.468   4.534   0.000  0.00  0.00    +0.000 C 
BRANCH  34  35
ATOM     35  C   UNL     1       0.307   4.816   0.000  0.00  0.00    +0.000 A 
ATOM     36  C   UNL     1       0.451   5.628   0.000  0.00  0.00    +0.000 A 
ATOM     37  C   UNL     1       1.226   5.910   0.000  0.00  0.00    +0.000 A 
ATOM     38  C   UNL     1       1.858   5.380   0.000  0.00  0.00    +0.000 A 
ATOM     39  C   UNL     1       1.714   4.568   0.000  0.00  0.00    +0.000 A 
ATOM     40  C   UNL     1       0.939   4.285   0.000  0.00  0.00    +0.000 A 
ENDBRANCH  34  35
ENDBRANCH   7  34
TORSDOF 9
