REMARK  Name = 
REMARK  0 active torsions:
REMARK  status: ('A' for Active; 'I' for Inactive)
REMARK                            x       y       z     vdW  Elec       q    Type
REMARK                         _______ _______ _______ _____ _____    ______ ____
ROOT
ATOM      1  O   UNL     1       2.631   1.796   0.000  0.00  0.00    +0.000 OA
ATOM      2  O   UNL     1       1.612  -1.741   0.000  0.00  0.00    +0.000 OA
ATOM      3  O   UNL     1      -2.856  -1.758   0.000  0.00  0.00    +0.000 OA
ATOM      4  C   UNL     1       1.594  -0.065   0.000  0.00  0.00    +0.000 C 
ATOM      5  C   UNL     1       1.594   0.760   0.000  0.00  0.00    +0.000 C 
ATOM      6  C   UNL     1       0.879  -0.477   0.000  0.00  0.00    +0.000 C 
ATOM      7  C   UNL     1       0.165  -0.065   0.000  0.00  0.00    +0.000 C 
ATOM      8  C   UNL     1      -0.586  -0.483   0.000  0.00  0.00    +0.000 C 
ATOM      9  C   UNL     1       0.879   1.173   0.000  0.00  0.00    +0.000 C 
ATOM     10  C   UNL     1       0.165   0.760   0.000  0.00  0.00    +0.000 C 
ATOM     11  C   UNL     1       2.374   1.012   0.000  0.00  0.00    +0.000 C 
ATOM     12  C   UNL     1       2.374  -0.316   0.000  0.00  0.00    +0.000 C 
ATOM     13  C   UNL     1       0.892  -1.337   0.000  0.00  0.00    +0.000 C 
ATOM     14  C   UNL     1       2.856   0.348   0.000  0.00  0.00    +0.000 C 
ATOM     15  C   UNL     1      -0.593  -1.342   0.000  0.00  0.00    +0.000 C 
ATOM     16  C   UNL     1      -1.351  -0.018   0.000  0.00  0.00    +0.000 C 
ATOM     17  C   UNL     1       1.594   1.585   0.000  0.00  0.00    +0.000 C 
ATOM     18  C   UNL     1       0.151  -1.772   0.000  0.00  0.00    +0.000 C 
ATOM     19  C   UNL     1      -0.580   0.342   0.000  0.00  0.00    +0.000 C 
ATOM     20  C   UNL     1      -1.364  -1.796   0.000  0.00  0.00    +0.000 C 
ATOM     21  C   UNL     1      -2.133  -0.453   0.000  0.00  0.00    +0.000 C 
ATOM     22  C   UNL     1      -2.140  -1.348   0.000  0.00  0.00    +0.000 C 
ENDROOT
TORSDOF 0
