REMARK  Name = 
REMARK  5 active torsions:
REMARK  status: ('A' for Active; 'I' for Inactive)
REMARK    1  A    between atoms: N_1  and  C_21
REMARK    2  A    between atoms: C_10  and  C_11
REMARK    3  A    between atoms: N_14  and  C_15
REMARK    4  A    between atoms: C_15  and  C_16
REMARK    5  A    between atoms: C_16  and  C_18
REMARK                            x       y       z     vdW  Elec       q    Type
REMARK                         _______ _______ _______ _____ _____    ______ ____
ROOT
ATOM      1  C   UNL     1       0.066   1.074   0.000  0.00  0.00    +0.000 C 
ATOM      2  C   UNL     1       0.066   1.903   0.000  0.00  0.00    +0.000 C 
ENDROOT
BRANCH   1   3
ATOM      3  C   UNL     1      -0.656   0.664   0.000  0.00  0.00    +0.000 A 
ATOM      4  C   UNL     1      -0.656  -0.164   0.000  0.00  0.00    +0.000 A 
ATOM      5  C   UNL     1      -1.369  -0.574   0.000  0.00  0.00    +0.000 A 
ATOM      6  C   UNL     1      -2.083  -0.164   0.000  0.00  0.00    +0.000 A 
ATOM      7  C   UNL     1      -2.083   0.664   0.000  0.00  0.00    +0.000 A 
ATOM      8  C   UNL     1      -1.369   1.074   0.000  0.00  0.00    +0.000 A 
BRANCH   6   9
ATOM      9  N   UNL     1      -2.796  -0.574   0.000  0.00  0.00    +0.000 N 
ATOM     10  C   UNL     1      -2.878  -1.394   0.000  0.00  0.00    +0.000 C 
ATOM     11  C   UNL     1      -3.690  -1.566   0.000  0.00  0.00    +0.000 C 
ATOM     12  N   UNL     1      -4.100  -0.853   0.000  0.00  0.00    +0.000 NA
ATOM     13  C   UNL     1      -3.551  -0.238   0.000  0.00  0.00    +0.000 C 
ATOM     14  O   UNL     1      -3.723   0.566   0.000  0.00  0.00    +0.000 OA
ENDBRANCH   6   9
ENDBRANCH   1   3
BRANCH   1  15
ATOM     15  C   UNL     1       0.779   0.664   0.000  0.00  0.00    +0.000 C 
ATOM     16  O   UNL     1       0.779  -0.164   0.000  0.00  0.00    +0.000 OA
BRANCH  15  22
ATOM     17  N   UNL     1       3.510   0.385   0.000  0.00  0.00    +0.000 NA
ATOM     18  N   UNL     1       2.960   1.000   0.000  0.00  0.00    +0.000 NA
ATOM     19  C   UNL     1       2.206   0.664   0.000  0.00  0.00    +0.000 C 
ATOM     20  C   UNL     1       2.288  -0.156   0.000  0.00  0.00    +0.000 C 
ATOM     21  C   UNL     1       3.100  -0.328   0.000  0.00  0.00    +0.000 C 
ATOM     22  N   UNL     1       1.492   1.074   0.000  0.00  0.00    +0.000 NA
BRANCH  21  23
ATOM     23  C   UNL     1       3.436  -1.083   0.000  0.00  0.00    +0.000 C 
ATOM     24  C   UNL     1       4.100  -1.566   0.000  0.00  0.00    +0.000 C 
ATOM     25  C   UNL     1       3.346  -1.903   0.000  0.00  0.00    +0.000 C 
ENDBRANCH  21  23
ENDBRANCH  15  22
ENDBRANCH   1  15
TORSDOF 5
