REMARK  Name = 
REMARK  0 active torsions:
REMARK  status: ('A' for Active; 'I' for Inactive)
REMARK                            x       y       z     vdW  Elec       q    Type
REMARK                         _______ _______ _______ _____ _____    ______ ____
ROOT
ATOM      1  C   UNL     1      -1.127  -0.674   0.000  0.00  0.00    +0.000 C 
ATOM      2  C   UNL     1      -0.412  -1.087   0.000  0.00  0.00    +0.000 C 
ATOM      3  C   UNL     1       0.302   0.151   0.000  0.00  0.00    +0.000 C 
ATOM      4  C   UNL     1       0.302  -0.674   0.000  0.00  0.00    +0.000 C 
ATOM      5  C   UNL     1      -0.412   0.563   0.000  0.00  0.00    +0.000 C 
ATOM      6  C   UNL     1      -1.127   0.151   0.000  0.00  0.00    +0.000 C 
ATOM      7  C   UNL     1      -0.412   1.388   0.000  0.00  0.00    +0.000 C 
ATOM      8  C   UNL     1       0.714  -1.389   0.000  0.00  0.00    +0.000 C 
ATOM      9  C   UNL     1       1.127  -0.674   0.000  0.00  0.00    +0.000 C 
ATOM     10  C   UNL     1      -0.412  -0.262   0.000  0.00  0.00    +0.000 C 
ENDROOT
TORSDOF 0
