REMARK  Name = 
REMARK  10 active torsions:
REMARK  status: ('A' for Active; 'I' for Inactive)
REMARK    1  A    between atoms: C_1  and  C_3
REMARK    2  A    between atoms: C_5  and  N_16
REMARK    3  A    between atoms: C_7  and  C_12
REMARK    4  A    between atoms: N_13  and  C_14
REMARK    5  A    between atoms: C_14  and  C_20
REMARK    6  A    between atoms: C_17  and  C_18
REMARK    7  A    between atoms: C_18  and  N_23
REMARK    8  A    between atoms: C_24  and  C_25
REMARK    9  A    between atoms: C_27  and  N_31
REMARK   10  A    between atoms: C_29  and  C_36
REMARK                            x       y       z     vdW  Elec       q    Type
REMARK                         _______ _______ _______ _____ _____    ______ ____
ROOT
ATOM      1  C   UNL     1       0.711  -1.029   0.000  0.00  0.00    +0.000 C 
ENDROOT
BRANCH   1   3
ATOM      2  N   UNL     1      -0.714  -1.024   0.000  0.00  0.00    +0.000 NA
ATOM      3  C   UNL     1      -0.002  -0.616   0.000  0.00  0.00    +0.000 C 
ATOM      4  O   UNL     1      -0.000   0.209   0.000  0.00  0.00    +0.000 OA
BRANCH   2   7
ATOM      5  C   UNL     1      -2.144   0.625   0.000  0.00  0.00    +0.000 A 
ATOM      6  C   UNL     1      -1.427   0.213   0.000  0.00  0.00    +0.000 A 
ATOM      7  C   UNL     1      -1.427  -0.612   0.000  0.00  0.00    +0.000 A 
ATOM      8  C   UNL     1      -2.143  -1.024   0.000  0.00  0.00    +0.000 A 
ATOM      9  C   UNL     1      -2.855  -0.612   0.000  0.00  0.00    +0.000 A 
ATOM     10  C   UNL     1      -2.855   0.213   0.000  0.00  0.00    +0.000 A 
ATOM     11  I   UNL     1      -2.144  -1.850   0.000  0.00  0.00    +0.000 I 
ATOM     12  I   UNL     1      -3.570   0.625   0.000  0.00  0.00    +0.000 I 
ATOM     13  I   UNL     1      -0.713   0.626   0.000  0.00  0.00    +0.000 I 
BRANCH   5  14
ATOM     14  C   UNL     1      -2.143   1.446   0.000  0.00  0.00    +0.000 C 
ATOM     15  O   UNL     1      -2.857   1.860   0.000  0.00  0.00    +0.000 OA
ATOM     16  O   UNL     1      -1.428   1.858   0.000  0.00  0.00    +0.000 OA
ENDBRANCH   5  14
BRANCH   9  17
ATOM     17  C   UNL     1      -3.570  -1.024   0.000  0.00  0.00    +0.000 C 
ATOM     18  N   UNL     1      -4.281  -0.608   0.000  0.00  0.00    +0.000 NA
ATOM     19  O   UNL     1      -3.573  -1.849   0.000  0.00  0.00    +0.000 OA
BRANCH  18  20
ATOM     20  C   UNL     1      -4.994  -1.020   0.000  0.00  0.00    +0.000 C 
BRANCH  20  21
ATOM     21  C   UNL     1      -5.709  -0.609   0.000  0.00  0.00    +0.000 C 
ATOM     22  O   UNL     1      -6.423  -1.022   0.000  0.00  0.00    +0.000 OA
ENDBRANCH  20  21
ENDBRANCH  18  20
ENDBRANCH   9  17
ENDBRANCH   2   7
ENDBRANCH   1   3
BRANCH   1  23
ATOM     23  N   UNL     1       1.425  -0.617   0.000  0.00  0.00    +0.000 NA
ATOM     24  C   UNL     1       2.139  -1.030   0.000  0.00  0.00    +0.000 C 
ATOM     25  O   UNL     1       2.139  -1.855   0.000  0.00  0.00    +0.000 OA
BRANCH  24  26
ATOM     26  C   UNL     1       2.855  -0.619   0.000  0.00  0.00    +0.000 A 
ATOM     27  C   UNL     1       3.565  -1.033   0.000  0.00  0.00    +0.000 A 
ATOM     28  C   UNL     1       4.280  -0.621   0.000  0.00  0.00    +0.000 A 
ATOM     29  C   UNL     1       4.281   0.204   0.000  0.00  0.00    +0.000 A 
ATOM     30  C   UNL     1       3.567   0.617   0.000  0.00  0.00    +0.000 A 
ATOM     31  C   UNL     1       2.893   0.205   0.000  0.00  0.00    +0.000 A 
ATOM     32  I   UNL     1       3.563  -1.858   0.000  0.00  0.00    +0.000 I 
ATOM     33  I   UNL     1       4.996   0.615   0.000  0.00  0.00    +0.000 I 
ATOM     34  I   UNL     1       2.137   0.617   0.000  0.00  0.00    +0.000 I 
BRANCH  28  35
ATOM     35  N   UNL     1       4.994  -1.035   0.000  0.00  0.00    +0.000 N 
ATOM     36  C   UNL     1       4.993  -1.860   0.000  0.00  0.00    +0.000 C 
ATOM     37  C   UNL     1       5.709  -0.623   0.000  0.00  0.00    +0.000 C 
ATOM     38  C   UNL     1       6.423  -1.036   0.000  0.00  0.00    +0.000 C 
ATOM     39  O   UNL     1       5.710   0.202   0.000  0.00  0.00    +0.000 OA
ENDBRANCH  28  35
BRANCH  30  40
ATOM     40  C   UNL     1       3.568   1.442   0.000  0.00  0.00    +0.000 C 
ATOM     41  O   UNL     1       4.283   1.854   0.000  0.00  0.00    +0.000 OA
ATOM     42  N   UNL     1       2.854   1.855   0.000  0.00  0.00    +0.000 NA
ATOM     43  C   UNL     1       2.139   1.444   0.000  0.00  0.00    +0.000 C 
ENDBRANCH  30  40
ENDBRANCH  24  26
ENDBRANCH   1  23
TORSDOF 10
