REMARK  Name = 
REMARK  7 active torsions:
REMARK  status: ('A' for Active; 'I' for Inactive)
REMARK    1  A    between atoms: C_1  and  C_4
REMARK    2  A    between atoms: C_3  and  C_5
REMARK    3  A    between atoms: C_5  and  C_14
REMARK    4  A    between atoms: C_8  and  C_13
REMARK    5  A    between atoms: C_9  and  C_13
REMARK    6  A    between atoms: C_12  and  C_15
REMARK    7  A    between atoms: C_14  and  C_15
REMARK                            x       y       z     vdW  Elec       q    Type
REMARK                         _______ _______ _______ _____ _____    ______ ____
ROOT
ATOM      1  C   UNL     1       1.467   0.078   0.000  0.00  0.00    +0.000 C 
ATOM      2  O   UNL     1       1.467   0.900   0.000  0.00  0.00    +0.000 OA
ENDROOT
BRANCH   1   5
ATOM      3  C   UNL     1       3.010  -0.327   0.000  0.00  0.00    +0.000 C 
ATOM      4  O   UNL     1       2.610  -1.098   0.000  0.00  0.00    +0.000 OA
ATOM      5  C   UNL     1       2.188  -0.331   0.000  0.00  0.00    +0.000 C 
BRANCH   3   6
ATOM      6  C   UNL     1       3.415   0.369   0.000  0.00  0.00    +0.000 C 
ATOM      7  O   UNL     1       4.249   0.382   0.000  0.00  0.00    +0.000 OA
ATOM      8  N   UNL     1       2.989   1.098   0.000  0.00  0.00    +0.000 NA
ENDBRANCH   3   6
ENDBRANCH   1   5
BRANCH   1   9
ATOM      9  C   UNL     1       0.759  -0.331   0.000  0.00  0.00    +0.000 C 
BRANCH   9  10
ATOM     10  C   UNL     1       0.038   0.078   0.000  0.00  0.00    +0.000 C 
BRANCH  10  12
ATOM     11  C   UNL     1      -1.387   0.078   0.000  0.00  0.00    +0.000 C 
ATOM     12  C   UNL     1      -0.679  -0.331   0.000  0.00  0.00    +0.000 C 
BRANCH  11  13
ATOM     13  C   UNL     1      -2.099  -0.331   0.000  0.00  0.00    +0.000 C 
BRANCH  13  14
ATOM     14  C   UNL     1      -2.820   0.078   0.000  0.00  0.00    +0.000 C 
ATOM     15  C   UNL     1      -3.528  -0.331   0.000  0.00  0.00    +0.000 C 
ATOM     16  C   UNL     1      -4.249   0.078   0.000  0.00  0.00    +0.000 C 
ENDBRANCH  13  14
ENDBRANCH  11  13
ENDBRANCH  10  12
ENDBRANCH   9  10
ENDBRANCH   1   9
TORSDOF 7
