REMARK  Name = 
REMARK  5 active torsions:
REMARK  status: ('A' for Active; 'I' for Inactive)
REMARK    1  A    between atoms: C_2  and  N_3
REMARK    2  A    between atoms: C_2  and  C_19
REMARK    3  A    between atoms: C_12  and  C_15
REMARK    4  A    between atoms: N_21  and  C_22
REMARK    5  A    between atoms: C_25  and  C_32
REMARK                            x       y       z     vdW  Elec       q    Type
REMARK                         _______ _______ _______ _____ _____    ______ ____
ROOT
ATOM      1  C   UNL     1      -2.439  -2.342   0.000  0.00  0.00    +0.000 C 
ATOM      2  C   UNL     1      -1.869  -2.939   0.000  0.00  0.00    +0.000 C 
ATOM      3  C   UNL     1      -1.300  -3.536   0.000  0.00  0.00    +0.000 C 
ENDROOT
BRANCH   2   4
ATOM      4  N   UNL     1      -2.466  -3.509   0.000  0.00  0.00    +0.000 NA
ATOM      5  C   UNL     1      -2.271  -4.310   0.000  0.00  0.00    +0.000 C 
ATOM      6  C   UNL     1      -2.868  -4.880   0.000  0.00  0.00    +0.000 C 
ATOM      7  N   UNL     1      -3.660  -4.648   0.000  0.00  0.00    +0.000 N 
ATOM      8  C   UNL     1      -3.854  -3.846   0.000  0.00  0.00    +0.000 C 
ATOM      9  C   UNL     1      -3.258  -3.276   0.000  0.00  0.00    +0.000 C 
ATOM     10  C   UNL     1      -4.257  -5.217   0.000  0.00  0.00    +0.000 A 
ATOM     11  N   UNL     1      -4.062  -6.019   0.000  0.00  0.00    +0.000 NA
ATOM     12  C   UNL     1      -4.659  -6.588   0.000  0.00  0.00    +0.000 A 
ATOM     13  C   UNL     1      -5.450  -6.356   0.000  0.00  0.00    +0.000 A 
ATOM     14  C   UNL     1      -5.645  -5.555   0.000  0.00  0.00    +0.000 A 
ATOM     15  C   UNL     1      -5.048  -4.985   0.000  0.00  0.00    +0.000 A 
BRANCH  13  16
ATOM     16  C   UNL     1      -6.047  -6.926   0.000  0.00  0.00    +0.000 C 
ATOM     17  F   UNL     1      -6.644  -7.495   0.000  0.00  0.00    +0.000 F 
ATOM     18  F   UNL     1      -5.478  -7.523   0.000  0.00  0.00    +0.000 F 
ATOM     19  F   UNL     1      -6.617  -6.329   0.000  0.00  0.00    +0.000 F 
ENDBRANCH  13  16
ENDBRANCH   2   4
BRANCH   2  20
ATOM     20  C   UNL     1      -1.272  -2.370   0.000  0.00  0.00    +0.000 C 
ATOM     21  O   UNL     1      -1.467  -1.568   0.000  0.00  0.00    +0.000 OA
ATOM     22  N   UNL     1      -0.481  -2.602   0.000  0.00  0.00    +0.000 NA
BRANCH  22  23
ATOM     23  C   UNL     1       0.116  -2.032   0.000  0.00  0.00    +0.000 C 
ATOM     24  C   UNL     1       0.852  -1.659   0.000  0.00  0.00    +0.000 C 
ATOM     25  C   UNL     1       0.852  -0.911   0.000  0.00  0.00    +0.000 C 
ATOM     26  C   UNL     1       1.301  -0.121   0.000  0.00  0.00    +0.000 C 
ATOM     27  C   UNL     1       0.566  -0.494   0.000  0.00  0.00    +0.000 C 
ATOM     28  C   UNL     1       0.566  -1.242   0.000  0.00  0.00    +0.000 C 
ATOM     29  C   UNL     1       1.301  -1.616   0.000  0.00  0.00    +0.000 C 
ATOM     30  C   UNL     1       2.037  -1.242   0.000  0.00  0.00    +0.000 C 
ATOM     31  C   UNL     1       1.587  -2.032   0.000  0.00  0.00    +0.000 C 
ATOM     32  C   UNL     1       2.037  -0.494   0.000  0.00  0.00    +0.000 C 
BRANCH  26  33
ATOM     33  C   UNL     1       1.301   0.704   0.000  0.00  0.00    +0.000 C 
ATOM     34  O   UNL     1       0.587   1.117   0.000  0.00  0.00    +0.000 OA
ATOM     35  N   UNL     1       2.016   1.117   0.000  0.00  0.00    +0.000 NA
ENDBRANCH  26  33
ENDBRANCH  22  23
ENDBRANCH   2  20
TORSDOF 5
