REMARK  Name = 
REMARK  14 active torsions:
REMARK  status: ('A' for Active; 'I' for Inactive)
REMARK    1  A    between atoms: N_5  and  C_12
REMARK    2  A    between atoms: C_12  and  C_17
REMARK    3  A    between atoms: C_16  and  C_19
REMARK    4  A    between atoms: C_17  and  C_20
REMARK    5  A    between atoms: C_20  and  C_22
REMARK    6  A    between atoms: C_21  and  C_23
REMARK    7  A    between atoms: C_22  and  S_24
REMARK    8  A    between atoms: C_25  and  C_29
REMARK    9  A    between atoms: C_30  and  C_31
REMARK   10  A    between atoms: N_32  and  C_35
REMARK   11  A    between atoms: C_35  and  C_40
REMARK   12  A    between atoms: C_40  and  C_43
REMARK   13  A    between atoms: C_43  and  C_46
REMARK   14  A    between atoms: C_46  and  S_49
REMARK                            x       y       z     vdW  Elec       q    Type
REMARK                         _______ _______ _______ _____ _____    ______ ____
ROOT
ATOM      1  C   UNL     1       0.694   0.848   0.000  0.00  0.00    +0.000 C 
ATOM      2  C   UNL     1       1.097   1.573   0.000  0.00  0.00    +0.000 C 
ENDROOT
BRANCH   1   4
ATOM      3  C   UNL     1      -0.532   0.137   0.000  0.00  0.00    +0.000 C 
ATOM      4  C   UNL     1      -0.113   0.848   0.000  0.00  0.00    +0.000 C 
BRANCH   3  19
ATOM      5  C   UNL     1      -2.046  -1.862   0.000  0.00  0.00    +0.000 A 
ATOM      6  C   UNL     1      -2.768  -1.455   0.000  0.00  0.00    +0.000 A 
ATOM      7  C   UNL     1      -2.046  -2.702   0.000  0.00  0.00    +0.000 A 
ATOM      8  C   UNL     1      -1.439  -1.325   0.000  0.00  0.00    +0.000 C 
ATOM      9  N   UNL     1      -2.583  -0.640   0.000  0.00  0.00    +0.000 N 
ATOM     10  C   UNL     1      -3.478  -1.862   0.000  0.00  0.00    +0.000 A 
ATOM     11  C   UNL     1      -2.768  -3.110   0.000  0.00  0.00    +0.000 A 
ATOM     12  C   UNL     1      -1.335  -3.110   0.000  0.00  0.00    +0.000 A 
ATOM     13  C   UNL     1      -1.776  -0.574   0.000  0.00  0.00    +0.000 C 
ATOM     14  C   UNL     1      -0.728  -0.907   0.000  0.00  0.00    +0.000 C 
ATOM     15  C   UNL     1      -0.946  -1.995   0.000  0.00  0.00    +0.000 C 
ATOM     16  C   UNL     1      -3.478  -2.702   0.000  0.00  0.00    +0.000 A 
ATOM     17  C   UNL     1      -2.768  -3.935   0.000  0.00  0.00    +0.000 A 
ATOM     18  C   UNL     1      -1.335  -3.935   0.000  0.00  0.00    +0.000 A 
ATOM     19  C   UNL     1      -1.372   0.137   0.000  0.00  0.00    +0.000 C 
ATOM     20  C   UNL     1      -2.046  -4.353   0.000  0.00  0.00    +0.000 A 
BRANCH   9  21
ATOM     21  C   UNL     1      -3.141  -0.037   0.000  0.00  0.00    +0.000 C 
BRANCH  21  22
ATOM     22  C   UNL     1      -3.948  -0.218   0.000  0.00  0.00    +0.000 C 
BRANCH  22  23
ATOM     23  C   UNL     1      -4.511   0.385   0.000  0.00  0.00    +0.000 C 
BRANCH  23  24
ATOM     24  C   UNL     1      -5.318   0.218   0.000  0.00  0.00    +0.000 C 
BRANCH  24  25
ATOM     25  S   UNL     1      -5.866   0.822   0.000  0.00  0.00    +0.000 S 
ATOM     26  O   UNL     1      -6.284   1.532   0.000  0.00  0.00    +0.000 OA
ATOM     27  O   UNL     1      -5.196   1.333   0.000  0.00  0.00    +0.000 OA
ATOM     28  O   UNL     1      -6.587   0.448   0.000  0.00  0.00    +0.000 OA
ENDBRANCH  24  25
ENDBRANCH  23  24
ENDBRANCH  22  23
ENDBRANCH  21  22
ENDBRANCH   9  21
ENDBRANCH   3  19
ENDBRANCH   1   4
BRANCH   2  29
ATOM     29  C   UNL     1       1.937   1.573   0.000  0.00  0.00    +0.000 C 
ATOM     30  C   UNL     1       2.341   2.277   0.000  0.00  0.00    +0.000 C 
BRANCH  30  31
ATOM     31  C   UNL     1       3.163   2.277   0.000  0.00  0.00    +0.000 C 
ATOM     32  N   UNL     1       3.648   1.618   0.000  0.00  0.00    +0.000 N 
ATOM     33  C   UNL     1       3.648   2.943   0.000  0.00  0.00    +0.000 C 
ATOM     34  C   UNL     1       4.425   1.869   0.000  0.00  0.00    +0.000 A 
ATOM     35  C   UNL     1       4.425   2.688   0.000  0.00  0.00    +0.000 A 
ATOM     36  C   UNL     1       2.944   3.357   0.000  0.00  0.00    +0.000 C 
ATOM     37  C   UNL     1       3.992   3.713   0.000  0.00  0.00    +0.000 C 
ATOM     38  C   UNL     1       5.147   1.455   0.000  0.00  0.00    +0.000 A 
ATOM     39  C   UNL     1       5.147   3.110   0.000  0.00  0.00    +0.000 A 
ATOM     40  C   UNL     1       5.861   1.869   0.000  0.00  0.00    +0.000 A 
ATOM     41  C   UNL     1       5.861   2.688   0.000  0.00  0.00    +0.000 A 
ATOM     42  C   UNL     1       5.147   3.924   0.000  0.00  0.00    +0.000 A 
ATOM     43  C   UNL     1       6.587   3.110   0.000  0.00  0.00    +0.000 A 
ATOM     44  C   UNL     1       5.861   4.353   0.000  0.00  0.00    +0.000 A 
ATOM     45  C   UNL     1       6.587   3.924   0.000  0.00  0.00    +0.000 A 
BRANCH  32  46
ATOM     46  C   UNL     1       3.392   0.822   0.000  0.00  0.00    +0.000 C 
BRANCH  46  47
ATOM     47  C   UNL     1       3.955   0.218   0.000  0.00  0.00    +0.000 C 
BRANCH  47  48
ATOM     48  C   UNL     1       3.696  -0.559   0.000  0.00  0.00    +0.000 C 
BRANCH  48  49
ATOM     49  C   UNL     1       4.251  -1.177   0.000  0.00  0.00    +0.000 C 
BRANCH  49  50
ATOM     50  S   UNL     1       3.996  -1.954   0.000  0.00  0.00    +0.000 S 
ATOM     51  O   UNL     1       3.229  -1.647   0.000  0.00  0.00    +0.000 OA
ATOM     52  O   UNL     1       4.680  -2.410   0.000  0.00  0.00    +0.000 OA
ATOM     53  O   UNL     1       3.700  -2.880   0.000  0.00  0.00    +0.000 OA
ENDBRANCH  49  50
ENDBRANCH  48  49
ENDBRANCH  47  48
ENDBRANCH  46  47
ENDBRANCH  32  46
ENDBRANCH  30  31
ENDBRANCH   2  29
TORSDOF 14
REMARK  Name = 
REMARK  14 active torsions:
REMARK  status: ('A' for Active; 'I' for Inactive)
REMARK    1  A    between atoms: N_5  and  C_12
REMARK    2  A    between atoms: C_12  and  C_17
REMARK    3  A    between atoms: C_16  and  C_19
REMARK    4  A    between atoms: C_17  and  C_20
REMARK    5  A    between atoms: C_20  and  C_22
REMARK    6  A    between atoms: C_21  and  C_23
REMARK    7  A    between atoms: C_22  and  S_24
REMARK    8  A    between atoms: C_25  and  C_29
REMARK    9  A    between atoms: C_30  and  C_31
REMARK   10  A    between atoms: N_32  and  C_35
REMARK   11  A    between atoms: C_35  and  C_40
REMARK   12  A    between atoms: C_40  and  C_43
REMARK   13  A    between atoms: C_43  and  C_46
REMARK   14  A    between atoms: C_46  and  S_49
REMARK                            x       y       z     vdW  Elec       q    Type
REMARK                         _______ _______ _______ _____ _____    ______ ____
ROOT
ATOM      1 NA   UNL     1      -6.404   2.580   0.000  0.00  0.00    +0.000 Na
ENDROOT
TORSDOF 0
