REMARK  Name = 
REMARK  6 active torsions:
REMARK  status: ('A' for Active; 'I' for Inactive)
REMARK    1  A    between atoms: C_1  and  CA_9
REMARK    2  A    between atoms: N_2  and  CA_4
REMARK    3  A    between atoms: C_3  and  CA_4
REMARK    4  A    between atoms: CA_4  and  CB_10
REMARK    5  A    between atoms: CD_5  and  CG_11
REMARK    6  A    between atoms: CB_10  and  CG_11
REMARK                            x       y       z     vdW  Elec       q    Type
REMARK                         _______ _______ _______ _____ _____    ______ ____
ROOT
ATOM      1  CA  GLN A   2       0.714   0.760   0.000  0.00  0.00    +0.000 C 
ENDROOT
BRANCH   1   3
ATOM      2  C   ALA A   1       0.000  -1.177   0.000  0.00  0.00    +0.000 C 
ATOM      3  N   GLN A   2       0.718  -0.768   0.000  0.00  0.00    +0.000 NA
ATOM      4  O   ALA A   1      -0.013  -2.000   0.000  0.00  0.00    +0.000 OA
BRANCH   2   5
ATOM      5  CA  ALA A   1      -0.714  -0.756   0.000  0.00  0.00    +0.000 C 
ATOM      6  N   ALA A   1      -0.706   0.071   0.000  0.00  0.00    +0.000 NA
ATOM      7  CB  ALA A   1      -1.432  -1.165   0.000  0.00  0.00    +0.000 C 
ENDBRANCH   2   5
ENDBRANCH   1   3
BRANCH   1   8
ATOM      8  C   GLN A   2       1.428   1.173   0.000  0.00  0.00    +0.000 C 
ATOM      9  O   GLN A   2       1.428   2.000   0.000  0.00  0.00    +0.000 OA
ATOM     10  OXT GLN A   2       2.142   0.760   0.000  0.00  0.00    +0.000 OA
ENDBRANCH   1   8
BRANCH   1  11
ATOM     11  CB  GLN A   2       0.000   1.165   0.000  0.00  0.00    +0.000 C 
BRANCH  11  12
ATOM     12  CG  GLN A   2      -0.714   0.752   0.000  0.00  0.00    +0.000 C 
BRANCH  12  13
ATOM     13  CD  GLN A   2      -1.428   1.161   0.000  0.00  0.00    +0.000 C 
ATOM     14  OE1 GLN A   2      -1.428   1.987   0.000  0.00  0.00    +0.000 OA
ATOM     15  NE2 GLN A   2      -2.142   0.747   0.000  0.00  0.00    +0.000 NA
ENDBRANCH  12  13
ENDBRANCH  11  12
ENDBRANCH   1  11
TORSDOF 6
