REMARK  Name = 
REMARK  2 active torsions:
REMARK  status: ('A' for Active; 'I' for Inactive)
REMARK    1  A    between atoms: C_1  and  C_5
REMARK    2  A    between atoms: N_7  and  C_14
REMARK                            x       y       z     vdW  Elec       q    Type
REMARK                         _______ _______ _______ _____ _____    ______ ____
ROOT
ATOM      1  C   UNL     1      -0.134  -0.149   0.000  0.00  0.00    +0.000 C 
ATOM      2  N   UNL     1       0.650  -0.012   0.000  0.00  0.00    +0.000 NA
ATOM      3  O   UNL     1      -0.644   0.419   0.000  0.00  0.00    +0.000 OA
ENDROOT
BRANCH   1   4
ATOM      4  C   UNL     1      -0.389  -0.934   0.000  0.00  0.00    +0.000 A 
ATOM      5  N   UNL     1       0.062  -1.562   0.000  0.00  0.00    +0.000 NA
ATOM      6  N   UNL     1      -0.389  -2.189   0.000  0.00  0.00    +0.000 N 
ATOM      7  C   UNL     1      -1.154  -1.169   0.000  0.00  0.00    +0.000 A 
ATOM      8  C   UNL     1      -1.154  -1.954   0.000  0.00  0.00    +0.000 A 
ATOM      9  C   UNL     1      -0.134  -2.954   0.000  0.00  0.00    +0.000 C 
ATOM     10  C   UNL     1      -1.821  -0.777   0.000  0.00  0.00    +0.000 A 
ATOM     11  C   UNL     1      -1.821  -2.366   0.000  0.00  0.00    +0.000 A 
ATOM     12  C   UNL     1      -2.508  -1.169   0.000  0.00  0.00    +0.000 A 
ATOM     13  C   UNL     1      -2.508  -1.954   0.000  0.00  0.00    +0.000 A 
ENDBRANCH   1   4
BRANCH   2  14
ATOM     14  C   UNL     1       0.984   0.797   0.000  0.00  0.00    +0.000 C 
ATOM     15  C   UNL     1       0.351   1.427   0.000  0.00  0.00    +0.000 C 
ATOM     16  C   UNL     1       1.877   0.798   0.000  0.00  0.00    +0.000 C 
ATOM     17  C   UNL     1       2.508   1.430   0.000  0.00  0.00    +0.000 C 
ATOM     18  C   UNL     1       0.350   2.321   0.000  0.00  0.00    +0.000 C 
ATOM     19  C   UNL     1       2.507   2.324   0.000  0.00  0.00    +0.000 C 
ATOM     20  C   UNL     1       0.981   2.953   0.000  0.00  0.00    +0.000 C 
ATOM     21  C   UNL     1       1.874   2.954   0.000  0.00  0.00    +0.000 C 
ATOM     22  N   UNL     1       1.536   2.247   0.000  0.00  0.00    +0.000 NA
ATOM     23  C   UNL     1       1.287   1.480   0.000  0.00  0.00    +0.000 C 
ENDBRANCH   2  14
TORSDOF 2
