REMARK  Name = 
REMARK  5 active torsions:
REMARK  status: ('A' for Active; 'I' for Inactive)
REMARK    1  A    between atoms: C_5  and  C_7
REMARK    2  A    between atoms: C_7  and  O_8
REMARK    3  A    between atoms: O_8  and  C_9
REMARK    4  A    between atoms: C_12  and  C_15
REMARK    5  A    between atoms: C_18  and  C_20
REMARK                            x       y       z     vdW  Elec       q    Type
REMARK                         _______ _______ _______ _____ _____    ______ ____
ROOT
ATOM      1  C   UNL     1       0.715   5.941   0.000  0.00  0.00    +0.000 A 
ATOM      2  C   UNL     1       1.429   5.529   0.000  0.00  0.00    +0.000 A 
ATOM      3  C   UNL     1       1.429   4.704   0.000  0.00  0.00    +0.000 A 
ATOM      4  C   UNL     1       0.715   4.291   0.000  0.00  0.00    +0.000 A 
ATOM      5  C   UNL     1       0.000   4.704   0.000  0.00  0.00    +0.000 A 
ATOM      6  C   UNL     1       0.000   5.529   0.000  0.00  0.00    +0.000 A 
ENDROOT
BRANCH   4   7
ATOM      7  C   UNL     1       0.715   3.466   0.000  0.00  0.00    +0.000 C 
ATOM      8  C   UNL     1       1.382   2.981   0.000  0.00  0.00    +0.000 C 
ATOM      9  C   UNL     1       1.127   2.196   0.000  0.00  0.00    +0.000 C 
ATOM     10  C   UNL     1       0.302   2.196   0.000  0.00  0.00    +0.000 C 
ATOM     11  N   UNL     1       0.047   2.981   0.000  0.00  0.00    +0.000 NA
BRANCH  10  12
ATOM     12  C   UNL     1      -0.183   1.529   0.000  0.00  0.00    +0.000 C 
ATOM     13  O   UNL     1       0.153   0.775   0.000  0.00  0.00    +0.000 OA
ATOM     14  N   UNL     1      -1.003   1.615   0.000  0.00  0.00    +0.000 NA
ENDBRANCH  10  12
ENDBRANCH   4   7
BRANCH   1  15
ATOM     15  O   UNL     1       0.715   6.766   0.000  0.00  0.00    +0.000 OA
BRANCH  15  16
ATOM     16  C   UNL     1       0.000   7.179   0.000  0.00  0.00    +0.000 C 
BRANCH  16  21
ATOM     17  C   UNL     1      -0.715   9.241   0.000  0.00  0.00    +0.000 A 
ATOM     18  C   UNL     1       0.000   9.654   0.000  0.00  0.00    +0.000 A 
ATOM     19  C   UNL     1       0.715   9.241   0.000  0.00  0.00    +0.000 A 
ATOM     20  C   UNL     1       0.715   8.416   0.000  0.00  0.00    +0.000 A 
ATOM     21  C   UNL     1       0.000   8.004   0.000  0.00  0.00    +0.000 A 
ATOM     22  C   UNL     1      -0.715   8.416   0.000  0.00  0.00    +0.000 A 
ATOM     23  F   UNL     1       1.429   8.004   0.000  0.00  0.00    +0.000 F 
ENDBRANCH  16  21
ENDBRANCH  15  16
ENDBRANCH   1  15
TORSDOF 5
