REMARK  Name = 
REMARK  0 active torsions:
REMARK  status: ('A' for Active; 'I' for Inactive)
REMARK                            x       y       z     vdW  Elec       q    Type
REMARK                         _______ _______ _______ _____ _____    ______ ____
ROOT
ATOM      1 CL   UNL     1      -1.429  -0.540   0.000  0.00  0.00    +0.000 Cl
ATOM      2  O   UNL     1       0.000  -1.365   0.000  0.00  0.00    +0.000 OA
ATOM      3  O   UNL     1       1.429   1.110   0.000  0.00  0.00    +0.000 OA
ATOM      4  N   UNL     1       0.000   1.110   0.000  0.00  0.00    +0.000 NA
ATOM      5  C   UNL     1       0.000  -0.540   0.000  0.00  0.00    +0.000 A 
ATOM      6  C   UNL     1      -0.715  -0.128   0.000  0.00  0.00    +0.000 A 
ATOM      7  C   UNL     1       0.715  -0.128   0.000  0.00  0.00    +0.000 A 
ATOM      8  C   UNL     1      -0.715   0.697   0.000  0.00  0.00    +0.000 A 
ATOM      9  C   UNL     1       0.715   0.697   0.000  0.00  0.00    +0.000 A 
ENDROOT
TORSDOF 0
