REMARK  Name = 
REMARK  4 active torsions:
REMARK  status: ('A' for Active; 'I' for Inactive)
REMARK    1  A    between atoms: C_2  and  C_3
REMARK    2  A    between atoms: C_6  and  C_9
REMARK    3  A    between atoms: C_9  and  C_10
REMARK    4  A    between atoms: C_20  and  C_22
REMARK                            x       y       z     vdW  Elec       q    Type
REMARK                         _______ _______ _______ _____ _____    ______ ____
ROOT
ATOM      1  C   UNL     1       5.413   1.979   0.000  0.00  0.00    +0.000 A 
ATOM      2  C   UNL     1       5.939   1.343   0.000  0.00  0.00    +0.000 A 
ATOM      3  C   UNL     1       5.652   0.570   0.000  0.00  0.00    +0.000 A 
ATOM      4  C   UNL     1       4.839   0.432   0.000  0.00  0.00    +0.000 A 
ATOM      5  C   UNL     1       4.313   1.068   0.000  0.00  0.00    +0.000 A 
ATOM      6  C   UNL     1       4.600   1.841   0.000  0.00  0.00    +0.000 A 
ATOM      7  C   UNL     1       3.546   0.764   0.000  0.00  0.00    +0.000 C 
ATOM      8  C   UNL     1       2.815   0.381   0.000  0.00  0.00    +0.000 C 
ATOM      9  C   UNL     1       2.118   0.823   0.000  0.00  0.00    +0.000 C 
ATOM     10  C   UNL     1       2.152   1.647   0.000  0.00  0.00    +0.000 C 
ATOM     11  C   UNL     1       2.883   2.030   0.000  0.00  0.00    +0.000 C 
ATOM     12  O   UNL     1       3.580   1.588   0.000  0.00  0.00    +0.000 OA
ATOM     13  O   UNL     1       1.456   2.089   0.000  0.00  0.00    +0.000 OA
ATOM     14  O   UNL     1       1.387   0.441   0.000  0.00  0.00    +0.000 OA
ATOM     15  O   UNL     1       2.780  -0.443   0.000  0.00  0.00    +0.000 OA
ATOM     16  O   UNL     1       3.598  -0.060   0.000  0.00  0.00    +0.000 OA
ATOM     17  C   UNL     1       4.397  -0.265   0.000  0.00  0.00    +0.000 C 
ENDROOT
BRANCH  11  18
ATOM     18  C   UNL     1       2.917   2.854   0.000  0.00  0.00    +0.000 C 
ATOM     19  O   UNL     1       2.221   3.296   0.000  0.00  0.00    +0.000 OA
ENDBRANCH  11  18
BRANCH   1  20
ATOM     20  C   UNL     1       5.701   2.752   0.000  0.00  0.00    +0.000 C 
BRANCH  20  24
ATOM     21  C   UNL     1       8.141   3.166   0.000  0.00  0.00    +0.000 A 
ATOM     22  C   UNL     1       7.854   2.392   0.000  0.00  0.00    +0.000 A 
ATOM     23  C   UNL     1       7.040   2.255   0.000  0.00  0.00    +0.000 A 
ATOM     24  C   UNL     1       6.514   2.890   0.000  0.00  0.00    +0.000 A 
ATOM     25  C   UNL     1       6.801   3.663   0.000  0.00  0.00    +0.000 A 
ATOM     26  C   UNL     1       7.615   3.801   0.000  0.00  0.00    +0.000 A 
BRANCH  21  28
ATOM     27  C   UNL     1       9.242   4.077   0.000  0.00  0.00    +0.000 C 
ATOM     28  C   UNL     1       8.954   3.304   0.000  0.00  0.00    +0.000 C 
ENDBRANCH  21  28
ENDBRANCH  20  24
ENDBRANCH   1  20
TORSDOF 4
