REMARK  Name = 
REMARK  3 active torsions:
REMARK  status: ('A' for Active; 'I' for Inactive)
REMARK    1  A    between atoms: C_5  and  C_6
REMARK    2  A    between atoms: C_20  and  C_21
REMARK    3  A    between atoms: C_24  and  C_27
REMARK                            x       y       z     vdW  Elec       q    Type
REMARK                         _______ _______ _______ _____ _____    ______ ____
ROOT
ATOM      1  C   UNL     1      -1.851  -3.715   0.000  0.00  0.00    +0.000 C 
ATOM      2  N   UNL     1      -1.183  -3.230   0.000  0.00  0.00    +0.000 N 
ATOM      3  N   UNL     1      -0.398  -3.485   0.000  0.00  0.00    +0.000 NA
ATOM      4  C   UNL     1       0.086  -2.817   0.000  0.00  0.00    +0.000 A 
ATOM      5  C   UNL     1      -0.398  -2.150   0.000  0.00  0.00    +0.000 A 
ATOM      6  C   UNL     1      -1.183  -2.405   0.000  0.00  0.00    +0.000 A 
ENDROOT
BRANCH   5   7
ATOM      7  C   UNL     1      -0.143  -1.365   0.000  0.00  0.00    +0.000 A 
ATOM      8  C   UNL     1       0.641  -1.110   0.000  0.00  0.00    +0.000 A 
ATOM      9  N   UNL     1       0.641  -0.285   0.000  0.00  0.00    +0.000 N 
ATOM     10  N   UNL     1       1.356   0.127   0.000  0.00  0.00    +0.000 NA
ATOM     11  C   UNL     1       2.070  -0.285   0.000  0.00  0.00    +0.000 A 
ATOM     12  N   UNL     1       2.070  -1.110   0.000  0.00  0.00    +0.000 NA
ATOM     13  C   UNL     1       1.356  -1.523   0.000  0.00  0.00    +0.000 A 
ATOM     14  N   UNL     1       1.356  -2.348   0.000  0.00  0.00    +0.000 N 
ATOM     15  C   UNL     1       1.939  -2.931   0.000  0.00  0.00    +0.000 C 
ATOM     16  C   UNL     1       1.356  -3.515   0.000  0.00  0.00    +0.000 C 
ATOM     17  C   UNL     1       0.772  -2.931   0.000  0.00  0.00    +0.000 C 
ATOM     18  C   UNL     1      -0.143  -0.030   0.000  0.00  0.00    +0.000 A 
ATOM     19  C   UNL     1      -0.398   0.754   0.000  0.00  0.00    +0.000 C 
ATOM     20  N   UNL     1      -0.628  -0.698   0.000  0.00  0.00    +0.000 NA
ENDBRANCH   5   7
BRANCH   6  21
ATOM     21  C   UNL     1      -1.851  -1.920   0.000  0.00  0.00    +0.000 A 
ATOM     22  N   UNL     1      -2.604  -2.256   0.000  0.00  0.00    +0.000 NA
ATOM     23  C   UNL     1      -3.272  -1.771   0.000  0.00  0.00    +0.000 A 
ATOM     24  C   UNL     1      -3.185  -0.950   0.000  0.00  0.00    +0.000 A 
ATOM     25  C   UNL     1      -2.432  -0.615   0.000  0.00  0.00    +0.000 A 
ATOM     26  C   UNL     1      -1.764  -1.099   0.000  0.00  0.00    +0.000 A 
BRANCH  24  27
ATOM     27  C   UNL     1      -3.853  -0.465   0.000  0.00  0.00    +0.000 C 
ATOM     28  F   UNL     1      -4.520   0.020   0.000  0.00  0.00    +0.000 F 
ATOM     29  F   UNL     1      -3.368   0.202   0.000  0.00  0.00    +0.000 F 
ATOM     30  F   UNL     1      -4.338  -1.133   0.000  0.00  0.00    +0.000 F 
ENDBRANCH  24  27
ENDBRANCH   6  21
TORSDOF 3
