REMARK  Name = 
REMARK  12 active torsions:
REMARK  status: ('A' for Active; 'I' for Inactive)
REMARK    1  A    between atoms: C_1  and  C_2
REMARK    2  A    between atoms: C_1  and  C_3
REMARK    3  A    between atoms: C_2  and  C_5
REMARK    4  A    between atoms: C_3  and  C_7
REMARK    5  A    between atoms: C_5  and  C_9
REMARK    6  A    between atoms: C_7  and  C_11
REMARK    7  A    between atoms: C_16  and  C_17
REMARK    8  A    between atoms: C_16  and  C_18
REMARK    9  A    between atoms: C_17  and  C_20
REMARK   10  A    between atoms: C_18  and  C_22
REMARK   11  A    between atoms: C_20  and  C_24
REMARK   12  A    between atoms: C_22  and  C_26
REMARK                            x       y       z     vdW  Elec       q    Type
REMARK                         _______ _______ _______ _____ _____    ______ ____
ROOT
ATOM      1  C   UNL     1      -0.842  -2.074   0.000  0.00  0.00    +0.000 C 
ATOM      2  O   UNL     1      -0.871  -2.899   0.000  0.00  0.00    +0.000 OA
ENDROOT
BRANCH   1   3
ATOM      3  C   UNL     1      -0.113  -1.656   0.000  0.00  0.00    +0.000 C 
ATOM      4  O   UNL     1      -0.113  -0.835   0.000  0.00  0.00    +0.000 OA
BRANCH   3   5
ATOM      5  C   UNL     1       0.595  -2.074   0.000  0.00  0.00    +0.000 C 
ATOM      6  O   UNL     1       0.595  -2.899   0.000  0.00  0.00    +0.000 OA
BRANCH   5   7
ATOM      7  C   UNL     1       1.323  -1.698   0.000  0.00  0.00    +0.000 C 
ATOM      8  O   UNL     1       1.323  -0.869   0.000  0.00  0.00    +0.000 OA
ATOM      9  O   UNL     1       2.043  -2.112   0.000  0.00  0.00    +0.000 OA
ENDBRANCH   5   7
ENDBRANCH   3   5
ENDBRANCH   1   3
BRANCH   1  10
ATOM     10  C   UNL     1      -1.541  -1.626   0.000  0.00  0.00    +0.000 C 
ATOM     11  O   UNL     1      -1.541  -0.802   0.000  0.00  0.00    +0.000 OA
BRANCH  10  12
ATOM     12  C   UNL     1      -2.282  -2.037   0.000  0.00  0.00    +0.000 C 
ATOM     13  O   UNL     1      -2.303  -2.870   0.000  0.00  0.00    +0.000 OA
BRANCH  12  14
ATOM     14  C   UNL     1      -2.985  -1.626   0.000  0.00  0.00    +0.000 C 
ATOM     15  O   UNL     1      -3.713  -1.999   0.000  0.00  0.00    +0.000 OA
ENDBRANCH  12  14
ENDBRANCH  10  12
ENDBRANCH   1  10
TORSDOF 6
REMARK  Name = 
REMARK  12 active torsions:
REMARK  status: ('A' for Active; 'I' for Inactive)
REMARK    1  A    between atoms: C_1  and  C_2
REMARK    2  A    between atoms: C_1  and  C_3
REMARK    3  A    between atoms: C_2  and  C_5
REMARK    4  A    between atoms: C_3  and  C_7
REMARK    5  A    between atoms: C_5  and  C_9
REMARK    6  A    between atoms: C_7  and  C_11
REMARK    7  A    between atoms: C_16  and  C_17
REMARK    8  A    between atoms: C_16  and  C_18
REMARK    9  A    between atoms: C_17  and  C_20
REMARK   10  A    between atoms: C_18  and  C_22
REMARK   11  A    between atoms: C_20  and  C_24
REMARK   12  A    between atoms: C_22  and  C_26
REMARK                            x       y       z     vdW  Elec       q    Type
REMARK                         _______ _______ _______ _____ _____    ______ ____
ROOT
ATOM      1  C   UNL     1      -0.833   1.627   0.000  0.00  0.00    +0.000 C 
ATOM      2  O   UNL     1      -0.862   0.802   0.000  0.00  0.00    +0.000 OA
ENDROOT
BRANCH   1   3
ATOM      3  C   UNL     1      -0.105   2.045   0.000  0.00  0.00    +0.000 C 
ATOM      4  O   UNL     1      -0.105   2.866   0.000  0.00  0.00    +0.000 OA
BRANCH   3   5
ATOM      5  C   UNL     1       0.603   1.627   0.000  0.00  0.00    +0.000 C 
ATOM      6  O   UNL     1       0.603   0.802   0.000  0.00  0.00    +0.000 OA
BRANCH   5   7
ATOM      7  C   UNL     1       1.331   2.003   0.000  0.00  0.00    +0.000 C 
ATOM      8  O   UNL     1       1.331   2.832   0.000  0.00  0.00    +0.000 OA
ATOM      9  O   UNL     1       2.051   1.589   0.000  0.00  0.00    +0.000 OA
ENDBRANCH   5   7
ENDBRANCH   3   5
ENDBRANCH   1   3
BRANCH   1  10
ATOM     10  C   UNL     1      -1.532   2.074   0.000  0.00  0.00    +0.000 C 
ATOM     11  O   UNL     1      -1.532   2.899   0.000  0.00  0.00    +0.000 OA
BRANCH  10  12
ATOM     12  C   UNL     1      -2.273   1.664   0.000  0.00  0.00    +0.000 C 
ATOM     13  O   UNL     1      -2.294   0.831   0.000  0.00  0.00    +0.000 OA
BRANCH  12  14
ATOM     14  C   UNL     1      -2.977   2.074   0.000  0.00  0.00    +0.000 C 
ATOM     15  O   UNL     1      -3.705   1.702   0.000  0.00  0.00    +0.000 OA
ENDBRANCH  12  14
ENDBRANCH  10  12
ENDBRANCH   1  10
TORSDOF 6
REMARK  Name = 
REMARK  12 active torsions:
REMARK  status: ('A' for Active; 'I' for Inactive)
REMARK    1  A    between atoms: C_1  and  C_2
REMARK    2  A    between atoms: C_1  and  C_3
REMARK    3  A    between atoms: C_2  and  C_5
REMARK    4  A    between atoms: C_3  and  C_7
REMARK    5  A    between atoms: C_5  and  C_9
REMARK    6  A    between atoms: C_7  and  C_11
REMARK    7  A    between atoms: C_16  and  C_17
REMARK    8  A    between atoms: C_16  and  C_18
REMARK    9  A    between atoms: C_17  and  C_20
REMARK   10  A    between atoms: C_18  and  C_22
REMARK   11  A    between atoms: C_20  and  C_24
REMARK   12  A    between atoms: C_22  and  C_26
REMARK                            x       y       z     vdW  Elec       q    Type
REMARK                         _______ _______ _______ _____ _____    ______ ____
ROOT
ATOM      1 CA   UNL     1       3.713   0.077   0.000  0.00  0.00    +0.000 Ca
ENDROOT
TORSDOF 0
