REMARK  Name = 
REMARK  19 active torsions:
REMARK  status: ('A' for Active; 'I' for Inactive)
REMARK    1  A    between atoms: C_1  and  C_2
REMARK    2  A    between atoms: C_1  and  C_3
REMARK    3  A    between atoms: C_2  and  C_4
REMARK    4  A    between atoms: C_3  and  C_7
REMARK    5  A    between atoms: C_4  and  C_8
REMARK    6  A    between atoms: C_7  and  C_25
REMARK    7  A    between atoms: C_8  and  C_26
REMARK    8  A    between atoms: C_21  and  C_27
REMARK    9  A    between atoms: C_21  and  C_37
REMARK   10  A    between atoms: C_22  and  C_28
REMARK   11  A    between atoms: C_22  and  C_38
REMARK   12  A    between atoms: C_23  and  C_35
REMARK   13  A    between atoms: C_24  and  C_36
REMARK   14  A    between atoms: C_29  and  C_31
REMARK   15  A    between atoms: C_30  and  C_32
REMARK   16  A    between atoms: C_33  and  O_59
REMARK   17  A    between atoms: C_34  and  O_60
REMARK   18  A    between atoms: C_45  and  O_59
REMARK   19  A    between atoms: C_46  and  O_60
REMARK                            x       y       z     vdW  Elec       q    Type
REMARK                         _______ _______ _______ _____ _____    ______ ____
ROOT
ATOM      1  C   UNL     1      -5.716   2.475   0.000  0.00  0.00    +0.000 C 
ENDROOT
BRANCH   1   2
ATOM      2  C   UNL     1      -5.716   3.300   0.000  0.00  0.00    +0.000 C 
BRANCH   2   3
ATOM      3  C   UNL     1      -5.001   3.712   0.000  0.00  0.00    +0.000 C 
BRANCH   3   7
ATOM      4  C   UNL     1      -4.287   4.950   0.000  0.00  0.00    +0.000 A 
ATOM      5  C   UNL     1      -4.287   5.775   0.000  0.00  0.00    +0.000 A 
ATOM      6  C   UNL     1      -5.716   4.950   0.000  0.00  0.00    +0.000 A 
ATOM      7  C   UNL     1      -5.001   4.537   0.000  0.00  0.00    +0.000 A 
ATOM      8  C   UNL     1      -5.716   5.775   0.000  0.00  0.00    +0.000 A 
ATOM      9  C   UNL     1      -5.001   6.188   0.000  0.00  0.00    +0.000 A 
BRANCH   8  15
ATOM     10  C   UNL     1      -7.859   6.188   0.000  0.00  0.00    +0.000 A 
ATOM     11  C   UNL     1      -7.859   7.013   0.000  0.00  0.00    +0.000 A 
ATOM     12  C   UNL     1      -7.145   5.775   0.000  0.00  0.00    +0.000 A 
ATOM     13  C   UNL     1      -6.430   7.013   0.000  0.00  0.00    +0.000 A 
ATOM     14  C   UNL     1      -7.145   7.425   0.000  0.00  0.00    +0.000 A 
ATOM     15  C   UNL     1      -6.430   6.188   0.000  0.00  0.00    +0.000 A 
BRANCH  14  16
ATOM     16  C   UNL     1      -7.145   8.250   0.000  0.00  0.00    +0.000 C 
BRANCH  16  17
ATOM     17  C   UNL     1      -6.430   8.662   0.000  0.00  0.00    +0.000 C 
ATOM     18  O   UNL     1      -5.716   8.250   0.000  0.00  0.00    +0.000 OA
ATOM     19  O   UNL     1      -6.430   9.488   0.000  0.00  0.00    +0.000 OA
ENDBRANCH  16  17
ENDBRANCH  14  16
ENDBRANCH   8  15
BRANCH   9  20
ATOM     20  O   UNL     1      -5.001   7.013   0.000  0.00  0.00    +0.000 OA
BRANCH  20  25
ATOM     21  C   UNL     1      -2.858   7.425   0.000  0.00  0.00    +0.000 C 
ATOM     22  C   UNL     1      -2.858   8.250   0.000  0.00  0.00    +0.000 C 
ATOM     23  C   UNL     1      -3.572   8.662   0.000  0.00  0.00    +0.000 C 
ATOM     24  C   UNL     1      -4.287   8.250   0.000  0.00  0.00    +0.000 C 
ATOM     25  C   UNL     1      -4.287   7.425   0.000  0.00  0.00    +0.000 C 
ATOM     26  O   UNL     1      -2.143   8.662   0.000  0.00  0.00    +0.000 OA
ATOM     27  O   UNL     1      -3.572   9.488   0.000  0.00  0.00    +0.000 OA
ATOM     28  O   UNL     1      -5.001   8.662   0.000  0.00  0.00    +0.000 OA
ATOM     29  O   UNL     1      -3.572   7.013   0.000  0.00  0.00    +0.000 OA
BRANCH  21  30
ATOM     30  C   UNL     1      -2.143   7.013   0.000  0.00  0.00    +0.000 C 
ATOM     31  O   UNL     1      -1.429   7.425   0.000  0.00  0.00    +0.000 OA
ENDBRANCH  21  30
ENDBRANCH  20  25
ENDBRANCH   9  20
ENDBRANCH   3   7
ENDBRANCH   2   3
ENDBRANCH   1   2
BRANCH   1  32
ATOM     32  C   UNL     1      -6.430   2.062   0.000  0.00  0.00    +0.000 C 
BRANCH  32  33
ATOM     33  C   UNL     1      -6.430   1.238   0.000  0.00  0.00    +0.000 C 
BRANCH  33  34
ATOM     34  C   UNL     1      -7.145   0.825   0.000  0.00  0.00    +0.000 C 
BRANCH  34  38
ATOM     35  C   UNL     1      -7.859  -0.412   0.000  0.00  0.00    +0.000 A 
ATOM     36  C   UNL     1      -7.859  -1.238   0.000  0.00  0.00    +0.000 A 
ATOM     37  C   UNL     1      -6.430  -0.412   0.000  0.00  0.00    +0.000 A 
ATOM     38  C   UNL     1      -7.145   0.000   0.000  0.00  0.00    +0.000 A 
ATOM     39  C   UNL     1      -6.430  -1.238   0.000  0.00  0.00    +0.000 A 
ATOM     40  C   UNL     1      -7.145  -1.650   0.000  0.00  0.00    +0.000 A 
BRANCH  39  46
ATOM     41  C   UNL     1      -5.001  -2.888   0.000  0.00  0.00    +0.000 A 
ATOM     42  C   UNL     1      -4.287  -2.475   0.000  0.00  0.00    +0.000 A 
ATOM     43  C   UNL     1      -5.716  -2.475   0.000  0.00  0.00    +0.000 A 
ATOM     44  C   UNL     1      -5.001  -1.238   0.000  0.00  0.00    +0.000 A 
ATOM     45  C   UNL     1      -4.287  -1.650   0.000  0.00  0.00    +0.000 A 
ATOM     46  C   UNL     1      -5.716  -1.650   0.000  0.00  0.00    +0.000 A 
BRANCH  45  47
ATOM     47  C   UNL     1      -3.572  -1.238   0.000  0.00  0.00    +0.000 C 
BRANCH  47  48
ATOM     48  C   UNL     1      -2.858  -1.650   0.000  0.00  0.00    +0.000 C 
ATOM     49  O   UNL     1      -2.143  -1.238   0.000  0.00  0.00    +0.000 OA
ATOM     50  O   UNL     1      -2.858  -2.475   0.000  0.00  0.00    +0.000 OA
ENDBRANCH  47  48
ENDBRANCH  45  47
ENDBRANCH  39  46
BRANCH  40  51
ATOM     51  O   UNL     1      -7.145  -2.475   0.000  0.00  0.00    +0.000 OA
BRANCH  51  56
ATOM     52  C   UNL     1      -9.288  -2.888   0.000  0.00  0.00    +0.000 C 
ATOM     53  C   UNL     1      -9.288  -3.712   0.000  0.00  0.00    +0.000 C 
ATOM     54  C   UNL     1      -8.574  -4.125   0.000  0.00  0.00    +0.000 C 
ATOM     55  C   UNL     1      -7.859  -3.712   0.000  0.00  0.00    +0.000 C 
ATOM     56  C   UNL     1      -7.859  -2.888   0.000  0.00  0.00    +0.000 C 
ATOM     57  O   UNL     1     -10.003  -4.125   0.000  0.00  0.00    +0.000 OA
ATOM     58  O   UNL     1      -8.574  -4.950   0.000  0.00  0.00    +0.000 OA
ATOM     59  O   UNL     1      -7.145  -4.125   0.000  0.00  0.00    +0.000 OA
ATOM     60  O   UNL     1      -8.574  -2.475   0.000  0.00  0.00    +0.000 OA
BRANCH  52  61
ATOM     61  C   UNL     1     -10.003  -2.475   0.000  0.00  0.00    +0.000 C 
ATOM     62  O   UNL     1     -10.717  -2.888   0.000  0.00  0.00    +0.000 OA
ENDBRANCH  52  61
ENDBRANCH  51  56
ENDBRANCH  40  51
ENDBRANCH  34  38
ENDBRANCH  33  34
ENDBRANCH  32  33
ENDBRANCH   1  32
TORSDOF 19
