REMARK  Name = 
REMARK  6 active torsions:
REMARK  status: ('A' for Active; 'I' for Inactive)
REMARK    1  A    between atoms: O_2  and  C_3
REMARK    2  A    between atoms: C_4  and  S_15
REMARK    3  A    between atoms: S_15  and  C_18
REMARK    4  A    between atoms: C_21  and  O_22
REMARK    5  A    between atoms: O_22  and  C_23
REMARK    6  A    between atoms: C_23  and  C_24
REMARK                            x       y       z     vdW  Elec       q    Type
REMARK                         _______ _______ _______ _____ _____    ______ ____
ROOT
ATOM      1  S   UNL     1      -0.223  -0.294   0.000  0.00  0.00    +0.000 S 
ATOM      2  O   UNL     1       0.190   0.420   0.000  0.00  0.00    +0.000 OA
ATOM      3  O   UNL     1      -0.635  -1.009   0.000  0.00  0.00    +0.000 OA
ENDROOT
BRANCH   1   5
ATOM      4  C   UNL     1       0.492  -1.532   0.000  0.00  0.00    +0.000 A 
ATOM      5  C   UNL     1       0.492  -0.707   0.000  0.00  0.00    +0.000 A 
ATOM      6  C   UNL     1       1.206  -0.294   0.000  0.00  0.00    +0.000 A 
ATOM      7  C   UNL     1       1.921  -0.707   0.000  0.00  0.00    +0.000 A 
ATOM      8  C   UNL     1       2.566  -0.192   0.000  0.00  0.00    +0.000 C 
ATOM      9  C   UNL     1       3.370  -0.376   0.000  0.00  0.00    +0.000 C 
ATOM     10  N   UNL     1       3.728  -1.119   0.000  0.00  0.00    +0.000 NA
ATOM     11  C   UNL     1       4.553  -1.119   0.000  0.00  0.00    +0.000 C 
ATOM     12  C   UNL     1       3.370  -1.862   0.000  0.00  0.00    +0.000 C 
ATOM     13  C   UNL     1       2.566  -2.046   0.000  0.00  0.00    +0.000 C 
ATOM     14  C   UNL     1       1.921  -1.532   0.000  0.00  0.00    +0.000 A 
ATOM     15  C   UNL     1       1.206  -1.944   0.000  0.00  0.00    +0.000 A 
BRANCH   4  17
ATOM     16  C   UNL     1      -0.223  -2.769   0.000  0.00  0.00    +0.000 C 
ATOM     17  O   UNL     1      -0.223  -1.944   0.000  0.00  0.00    +0.000 OA
ENDBRANCH   4  17
ENDBRANCH   1   5
BRANCH   1  18
ATOM     18  C   UNL     1      -0.937   0.118   0.000  0.00  0.00    +0.000 A 
ATOM     19  C   UNL     1      -1.652  -0.294   0.000  0.00  0.00    +0.000 A 
ATOM     20  C   UNL     1      -2.366   0.118   0.000  0.00  0.00    +0.000 A 
ATOM     21  C   UNL     1      -2.366   0.943   0.000  0.00  0.00    +0.000 A 
ATOM     22  C   UNL     1      -1.652   1.356   0.000  0.00  0.00    +0.000 A 
ATOM     23  C   UNL     1      -0.937   0.943   0.000  0.00  0.00    +0.000 A 
BRANCH  21  24
ATOM     24  O   UNL     1      -3.081   1.356   0.000  0.00  0.00    +0.000 OA
BRANCH  24  25
ATOM     25  C   UNL     1      -3.795   0.943   0.000  0.00  0.00    +0.000 C 
BRANCH  25  26
ATOM     26  C   UNL     1      -4.510   1.356   0.000  0.00  0.00    +0.000 A 
ATOM     27  C   UNL     1      -5.224   0.943   0.000  0.00  0.00    +0.000 A 
ATOM     28  C   UNL     1      -5.939   1.356   0.000  0.00  0.00    +0.000 A 
ATOM     29  C   UNL     1      -5.939   2.181   0.000  0.00  0.00    +0.000 A 
ATOM     30 CL   UNL     1      -6.653   2.593   0.000  0.00  0.00    +0.000 Cl
ATOM     31  C   UNL     1      -5.224   2.593   0.000  0.00  0.00    +0.000 A 
ATOM     32  C   UNL     1      -4.510   2.181   0.000  0.00  0.00    +0.000 A 
ENDBRANCH  25  26
ENDBRANCH  24  25
ENDBRANCH  21  24
ENDBRANCH   1  18
TORSDOF 6
