REMARK  Name = 
REMARK  3 active torsions:
REMARK  status: ('A' for Active; 'I' for Inactive)
REMARK    1  A    between atoms: C_1  and  C_2
REMARK    2  A    between atoms: C_1  and  C_5
REMARK    3  A    between atoms: C_2  and  C_11
REMARK                            x       y       z     vdW  Elec       q    Type
REMARK                         _______ _______ _______ _____ _____    ______ ____
ROOT
ATOM      1  C   UNL     1      -0.357   0.206   0.000  0.00  0.00    +0.000 C 
ATOM      2  O   UNL     1      -0.357   1.031   0.000  0.00  0.00    +0.000 OA
ENDROOT
BRANCH   1   3
ATOM      3  C   UNL     1      -1.072  -0.206   0.000  0.00  0.00    +0.000 A 
ATOM      4  C   UNL     1      -1.072  -1.031   0.000  0.00  0.00    +0.000 A 
ATOM      5  C   UNL     1      -1.786   0.206   0.000  0.00  0.00    +0.000 A 
ATOM      6  C   UNL     1      -1.786  -1.444   0.000  0.00  0.00    +0.000 A 
ATOM      7  C   UNL     1      -2.501  -0.206   0.000  0.00  0.00    +0.000 A 
ATOM      8  C   UNL     1      -2.501  -1.031   0.000  0.00  0.00    +0.000 A 
ENDBRANCH   1   3
BRANCH   1   9
ATOM      9  C   UNL     1       0.357  -0.206   0.000  0.00  0.00    +0.000 C 
ATOM     10  O   UNL     1       0.357  -1.031   0.000  0.00  0.00    +0.000 OA
BRANCH   9  11
ATOM     11  C   UNL     1       1.072   0.206   0.000  0.00  0.00    +0.000 A 
ATOM     12  C   UNL     1       1.072   1.031   0.000  0.00  0.00    +0.000 A 
ATOM     13  C   UNL     1       1.786  -0.206   0.000  0.00  0.00    +0.000 A 
ATOM     14  C   UNL     1       1.786   1.444   0.000  0.00  0.00    +0.000 A 
ATOM     15  C   UNL     1       2.501   0.206   0.000  0.00  0.00    +0.000 A 
ATOM     16  C   UNL     1       2.501   1.031   0.000  0.00  0.00    +0.000 A 
ENDBRANCH   9  11
ENDBRANCH   1   9
TORSDOF 3
