REMARK  Name = 
REMARK  15 active torsions:
REMARK  status: ('A' for Active; 'I' for Inactive)
REMARK    1  A    between atoms: N_9  and  C_10
REMARK    2  A    between atoms: C_10  and  C_11
REMARK    3  A    between atoms: C_20  and  O_21
REMARK    4  A    between atoms: C_23  and  C_26
REMARK    5  A    between atoms: C_26  and  C_29
REMARK    6  A    between atoms: C_35  and  O_36
REMARK    7  A    between atoms: O_36  and  C_37
REMARK    8  A    between atoms: C_37  and  C_38
REMARK    9  A    between atoms: C_38  and  O_39
REMARK   10  A    between atoms: O_39  and  C_40
REMARK   11  A    between atoms: N_46  and  C_47
REMARK   12  A    between atoms: C_47  and  C_48
REMARK   13  A    between atoms: C_59  and  O_73
REMARK   14  A    between atoms: C_64  and  C_66
REMARK   15  A    between atoms: C_66  and  C_69
REMARK                            x       y       z     vdW  Elec       q    Type
REMARK                         _______ _______ _______ _____ _____    ______ ____
ROOT
ATOM      1  C   UNL     1       6.017   2.222   0.000  0.00  0.00    +0.000 C 
ENDROOT
BRANCH   1   2
ATOM      2  O   UNL     1       5.413   2.784   0.000  0.00  0.00    +0.000 OA
BRANCH   2  22
ATOM      3  C   UNL     1       3.884   4.841   0.000  0.00  0.00    +0.000 C 
ATOM      4  O   UNL     1       4.165   4.043   0.000  0.00  0.00    +0.000 OA
ATOM      5  C   UNL     1       4.993   4.181   0.000  0.00  0.00    +0.000 A 
ATOM      6  C   UNL     1       5.070   5.050   0.000  0.00  0.00    +0.000 A 
ATOM      7  C   UNL     1       5.909   5.226   0.000  0.00  0.00    +0.000 A 
ATOM      8  C   UNL     1       5.842   6.071   0.000  0.00  0.00    +0.000 C 
ATOM      9  C   UNL     1       5.041   6.406   0.000  0.00  0.00    +0.000 C 
ATOM     10  N   UNL     1       5.494   7.150   0.000  0.00  0.00    +0.000 NA
ATOM     11  C   UNL     1       4.710   7.417   0.000  0.00  0.00    +0.000 C 
ATOM     12  C   UNL     1       4.532   6.577   0.000  0.00  0.00    +0.000 C 
ATOM     13  C   UNL     1       4.419   5.626   0.000  0.00  0.00    +0.000 C 
ATOM     14  C   UNL     1       4.034   6.402   0.000  0.00  0.00    +0.000 C 
ATOM     15  C   UNL     1       3.717   5.742   0.000  0.00  0.00    +0.000 C 
ATOM     16  C   UNL     1       3.147   5.295   0.000  0.00  0.00    +0.000 C 
ATOM     17  C   UNL     1       2.972   4.619   0.000  0.00  0.00    +0.000 C 
ATOM     18  C   UNL     1       2.589   5.494   0.000  0.00  0.00    +0.000 C 
ATOM     19  C   UNL     1       3.105   6.241   0.000  0.00  0.00    +0.000 C 
ATOM     20  C   UNL     1       6.559   4.673   0.000  0.00  0.00    +0.000 A 
ATOM     21  C   UNL     1       6.383   3.854   0.000  0.00  0.00    +0.000 A 
ATOM     22  C   UNL     1       5.597   3.588   0.000  0.00  0.00    +0.000 A 
BRANCH  18  23
ATOM     23  C   UNL     1       1.768   5.572   0.000  0.00  0.00    +0.000 C 
ATOM     24  C   UNL     1       1.847   6.394   0.000  0.00  0.00    +0.000 C 
ATOM     25  O   UNL     1       1.689   4.751   0.000  0.00  0.00    +0.000 OA
BRANCH  23  26
ATOM     26  C   UNL     1       0.947   5.651   0.000  0.00  0.00    +0.000 C 
ATOM     27  C   UNL     1       1.025   6.472   0.000  0.00  0.00    +0.000 C 
ATOM     28  C   UNL     1       0.868   4.830   0.000  0.00  0.00    +0.000 C 
ATOM     29  C   UNL     1       0.125   5.730   0.000  0.00  0.00    +0.000 C 
ENDBRANCH  23  26
ENDBRANCH  18  23
BRANCH  17  30
ATOM     30  O   UNL     1       2.606   3.880   0.000  0.00  0.00    +0.000 OA
ATOM     31  C   UNL     1       3.063   3.193   0.000  0.00  0.00    +0.000 C 
ENDBRANCH  17  30
BRANCH  10  32
ATOM     32  C   UNL     1       6.270   7.431   0.000  0.00  0.00    +0.000 C 
BRANCH  32  33
ATOM     33  C   UNL     1       6.414   8.243   0.000  0.00  0.00    +0.000 C 
ATOM     34  C   UNL     1       6.133   9.019   0.000  0.00  0.00    +0.000 C 
ATOM     35  C   UNL     1       6.945   8.874   0.000  0.00  0.00    +0.000 C 
ENDBRANCH  32  33
ENDBRANCH  10  32
ENDBRANCH   2  22
ENDBRANCH   1   2
BRANCH   1  36
ATOM     36  C   UNL     1       5.833   1.418   0.000  0.00  0.00    +0.000 C 
BRANCH  36  37
ATOM     37  O   UNL     1       6.438   0.857   0.000  0.00  0.00    +0.000 OA
BRANCH  37  38
ATOM     38  C   UNL     1       6.253   0.052   0.000  0.00  0.00    +0.000 A 
ATOM     39  C   UNL     1       6.846  -0.529   0.000  0.00  0.00    +0.000 A 
ATOM     40  C   UNL     1       6.648  -1.342   0.000  0.00  0.00    +0.000 A 
ATOM     41  C   UNL     1       5.821  -1.558   0.000  0.00  0.00    +0.000 A 
ATOM     42  C   UNL     1       5.394  -2.290   0.000  0.00  0.00    +0.000 C 
ATOM     43  C   UNL     1       4.526  -2.243   0.000  0.00  0.00    +0.000 C 
ATOM     44  N   UNL     1       4.611  -3.110   0.000  0.00  0.00    +0.000 NA
ATOM     45  C   UNL     1       3.789  -3.009   0.000  0.00  0.00    +0.000 C 
ATOM     46  C   UNL     1       3.994  -2.175   0.000  0.00  0.00    +0.000 C 
ATOM     47  C   UNL     1       4.306  -1.270   0.000  0.00  0.00    +0.000 C 
ATOM     48  C   UNL     1       5.143  -1.034   0.000  0.00  0.00    +0.000 A 
ATOM     49  C   UNL     1       5.452  -0.219   0.000  0.00  0.00    +0.000 A 
ATOM     50  O   UNL     1       4.766   0.266   0.000  0.00  0.00    +0.000 OA
ATOM     51  C   UNL     1       4.166  -0.331   0.000  0.00  0.00    +0.000 C 
ATOM     52  C   UNL     1       3.441   0.266   0.000  0.00  0.00    +0.000 C 
ATOM     53  C   UNL     1       3.305  -0.418   0.000  0.00  0.00    +0.000 C 
ATOM     54  C   UNL     1       3.624  -1.069   0.000  0.00  0.00    +0.000 C 
ATOM     55  C   UNL     1       3.622  -1.801   0.000  0.00  0.00    +0.000 C 
ATOM     56  C   UNL     1       2.856  -1.252   0.000  0.00  0.00    +0.000 C 
ATOM     57  C   UNL     1       2.716  -0.355   0.000  0.00  0.00    +0.000 C 
BRANCH  57  58
ATOM     58  C   UNL     1       1.942  -0.068   0.000  0.00  0.00    +0.000 C 
ATOM     59  C   UNL     1       2.229   0.705   0.000  0.00  0.00    +0.000 C 
ATOM     60  O   UNL     1       1.656  -0.842   0.000  0.00  0.00    +0.000 OA
BRANCH  58  61
ATOM     61  C   UNL     1       1.169   0.218   0.000  0.00  0.00    +0.000 C 
ATOM     62  C   UNL     1       1.455   0.992   0.000  0.00  0.00    +0.000 C 
ATOM     63  C   UNL     1       0.882  -0.556   0.000  0.00  0.00    +0.000 C 
ATOM     64  C   UNL     1       0.395   0.504   0.000  0.00  0.00    +0.000 C 
ENDBRANCH  58  61
ENDBRANCH  57  58
BRANCH  52  65
ATOM     65  O   UNL     1       3.433   1.091   0.000  0.00  0.00    +0.000 OA
ATOM     66  C   UNL     1       2.715   1.496   0.000  0.00  0.00    +0.000 C 
ENDBRANCH  52  65
BRANCH  44  67
ATOM     67  C   UNL     1       5.187  -3.700   0.000  0.00  0.00    +0.000 C 
BRANCH  67  68
ATOM     68  C   UNL     1       4.964  -4.495   0.000  0.00  0.00    +0.000 C 
ATOM     69  C   UNL     1       5.168  -5.294   0.000  0.00  0.00    +0.000 C 
ATOM     70  C   UNL     1       4.373  -5.071   0.000  0.00  0.00    +0.000 C 
ENDBRANCH  67  68
ENDBRANCH  44  67
ENDBRANCH  37  38
ENDBRANCH  36  37
ENDBRANCH   1  36
TORSDOF 15
