REMARK  Name = 
REMARK  6 active torsions:
REMARK  status: ('A' for Active; 'I' for Inactive)
REMARK    1  A    between atoms: C_1  and  C_8
REMARK    2  A    between atoms: C_3  and  C_11
REMARK    3  A    between atoms: N_5  and  C_8
REMARK    4  A    between atoms: N_5  and  C_9
REMARK    5  A    between atoms: N_5  and  C_11
REMARK    6  A    between atoms: C_6  and  C_9
REMARK                            x       y       z     vdW  Elec       q    Type
REMARK                         _______ _______ _______ _____ _____    ______ ____
ROOT
ATOM      1  N   UNL     1       0.357  -0.206   0.000  0.00  0.00    +0.000 NA
ENDROOT
BRANCH   1   2
ATOM      2  C   UNL     1      -0.357  -0.619   0.000  0.00  0.00    +0.000 C 
BRANCH   2   3
ATOM      3  C   UNL     1      -1.072  -0.206   0.000  0.00  0.00    +0.000 C 
ATOM      4  O   UNL     1      -1.786  -0.619   0.000  0.00  0.00    +0.000 OA
ATOM      5  O   UNL     1      -1.072   0.619   0.000  0.00  0.00    +0.000 OA
ENDBRANCH   2   3
ENDBRANCH   1   2
BRANCH   1   6
ATOM      6  C   UNL     1       1.072  -0.619   0.000  0.00  0.00    +0.000 C 
BRANCH   6   7
ATOM      7  C   UNL     1       1.072  -1.444   0.000  0.00  0.00    +0.000 C 
ATOM      8  O   UNL     1       1.786  -1.856   0.000  0.00  0.00    +0.000 OA
ATOM      9  O   UNL     1       0.357  -1.856   0.000  0.00  0.00    +0.000 OA
ENDBRANCH   6   7
ENDBRANCH   1   6
BRANCH   1  10
ATOM     10  C   UNL     1       0.357   0.619   0.000  0.00  0.00    +0.000 C 
BRANCH  10  11
ATOM     11  C   UNL     1       1.072   1.031   0.000  0.00  0.00    +0.000 C 
ATOM     12  O   UNL     1       1.072   1.856   0.000  0.00  0.00    +0.000 OA
ATOM     13  O   UNL     1       1.786   0.619   0.000  0.00  0.00    +0.000 OA
ENDBRANCH  10  11
ENDBRANCH   1  10
TORSDOF 6
