REMARK  Name = 
REMARK  1 active torsions:
REMARK  status: ('A' for Active; 'I' for Inactive)
REMARK    1  A    between atoms: C_11  and  C_13
REMARK                            x       y       z     vdW  Elec       q    Type
REMARK                         _______ _______ _______ _____ _____    ______ ____
ROOT
ATOM      1  C   UNL     1      -0.710  -0.622   0.000  0.00  0.00    +0.000 A 
ATOM      2  C   UNL     1      -0.710   0.202   0.000  0.00  0.00    +0.000 A 
ATOM      3  C   UNL     1       0.000  -1.041   0.000  0.00  0.00    +0.000 A 
ATOM      4  C   UNL     1      -1.464  -1.041   0.000  0.00  0.00    +0.000 A 
ATOM      5  O   UNL     1       0.000   0.622   0.000  0.00  0.00    +0.000 OA
ATOM      6  C   UNL     1      -1.464   0.622   0.000  0.00  0.00    +0.000 A 
ATOM      7  C   UNL     1       0.710  -0.622   0.000  0.00  0.00    +0.000 A 
ATOM      8  O   UNL     1       0.000  -1.878   0.000  0.00  0.00    +0.000 OA
ATOM      9  C   UNL     1      -2.175  -0.622   0.000  0.00  0.00    +0.000 A 
ATOM     10  O   UNL     1      -1.464  -1.878   0.000  0.00  0.00    +0.000 OA
ATOM     11  C   UNL     1       0.710   0.202   0.000  0.00  0.00    +0.000 A 
ATOM     12  C   UNL     1      -2.175   0.202   0.000  0.00  0.00    +0.000 A 
ATOM     13  O   UNL     1      -2.883   0.622   0.000  0.00  0.00    +0.000 OA
ENDROOT
BRANCH  11  14
ATOM     14  C   UNL     1       1.464   0.622   0.000  0.00  0.00    +0.000 A 
ATOM     15  C   UNL     1       2.175   0.202   0.000  0.00  0.00    +0.000 A 
ATOM     16  C   UNL     1       1.464   1.458   0.000  0.00  0.00    +0.000 A 
ATOM     17  C   UNL     1       2.883   0.622   0.000  0.00  0.00    +0.000 A 
ATOM     18  C   UNL     1       2.175   1.878   0.000  0.00  0.00    +0.000 A 
ATOM     19  C   UNL     1       2.883   1.458   0.000  0.00  0.00    +0.000 A 
ENDBRANCH  11  14
TORSDOF 1
