REMARK  Name = 
REMARK  4 active torsions:
REMARK  status: ('A' for Active; 'I' for Inactive)
REMARK    1  A    between atoms: C_4  and  N_8
REMARK    2  A    between atoms: N_11  and  C_12
REMARK    3  A    between atoms: C_12  and  C_13
REMARK    4  A    between atoms: C_13  and  C_14
REMARK                            x       y       z     vdW  Elec       q    Type
REMARK                         _______ _______ _______ _____ _____    ______ ____
ROOT
ATOM      1  N   UNL     1      -2.143  -3.712   0.000  0.00  0.00    +0.000 N 
ATOM      2  C   UNL     1      -2.143  -2.888   0.000  0.00  0.00    +0.000 C 
ATOM      3  C   UNL     1      -1.429  -2.475   0.000  0.00  0.00    +0.000 C 
ATOM      4  N   UNL     1      -0.715  -2.888   0.000  0.00  0.00    +0.000 NA
ATOM      5  C   UNL     1      -0.715  -3.712   0.000  0.00  0.00    +0.000 C 
ATOM      6  C   UNL     1      -1.429  -4.125   0.000  0.00  0.00    +0.000 C 
ENDROOT
BRANCH   1  10
ATOM      7  C   UNL     1      -5.001  -3.712   0.000  0.00  0.00    +0.000 C 
ATOM      8  C   UNL     1      -4.287  -4.125   0.000  0.00  0.00    +0.000 A 
ATOM      9  C   UNL     1      -3.572  -3.712   0.000  0.00  0.00    +0.000 A 
ATOM     10  C   UNL     1      -2.858  -4.125   0.000  0.00  0.00    +0.000 A 
ATOM     11  C   UNL     1      -2.858  -4.950   0.000  0.00  0.00    +0.000 A 
ATOM     12  C   UNL     1      -3.572  -5.362   0.000  0.00  0.00    +0.000 A 
ATOM     13  C   UNL     1      -4.287  -4.950   0.000  0.00  0.00    +0.000 A 
ENDBRANCH   1  10
BRANCH   4  14
ATOM     14  C   UNL     1       0.000  -2.475   0.000  0.00  0.00    +0.000 C 
BRANCH  14  15
ATOM     15  C   UNL     1       0.000  -1.650   0.000  0.00  0.00    +0.000 C 
BRANCH  15  16
ATOM     16  C   UNL     1       0.715  -1.238   0.000  0.00  0.00    +0.000 A 
ATOM     17  C   UNL     1       0.715  -0.412   0.000  0.00  0.00    +0.000 A 
ATOM     18  C   UNL     1       1.429   0.000   0.000  0.00  0.00    +0.000 A 
ATOM     19  C   UNL     1       2.143  -0.412   0.000  0.00  0.00    +0.000 A 
ATOM     20  C   UNL     1       2.858   0.000   0.000  0.00  0.00    +0.000 A 
ATOM     21  C   UNL     1       3.572  -0.412   0.000  0.00  0.00    +0.000 A 
ATOM     22  C   UNL     1       3.572  -1.238   0.000  0.00  0.00    +0.000 A 
ATOM     23  C   UNL     1       2.858  -1.650   0.000  0.00  0.00    +0.000 A 
ATOM     24  C   UNL     1       2.143  -1.238   0.000  0.00  0.00    +0.000 A 
ATOM     25  N   UNL     1       1.429  -1.650   0.000  0.00  0.00    +0.000 NA
ENDBRANCH  15  16
ENDBRANCH  14  15
ENDBRANCH   4  14
TORSDOF 4
