REMARK  Name = 
REMARK  9 active torsions:
REMARK  status: ('A' for Active; 'I' for Inactive)
REMARK    1  A    between atoms: O_1  and  C_2
REMARK    2  A    between atoms: O_1  and  C_10
REMARK    3  A    between atoms: C_2  and  C_3
REMARK    4  A    between atoms: C_3  and  N_4
REMARK    5  A    between atoms: C_5  and  C_6
REMARK    6  A    between atoms: C_11  and  C_17
REMARK    7  A    between atoms: C_20  and  N_21
REMARK    8  A    between atoms: C_22  and  C_24
REMARK    9  A    between atoms: C_28  and  C_31
REMARK                            x       y       z     vdW  Elec       q    Type
REMARK                         _______ _______ _______ _____ _____    ______ ____
ROOT
ATOM      1  C   UNL     1       0.055  -0.770   0.000  0.00  0.00    +0.000 A 
ATOM      2  C   UNL     1      -0.659  -0.357   0.000  0.00  0.00    +0.000 A 
ATOM      3  C   UNL     1      -0.659   0.468   0.000  0.00  0.00    +0.000 C 
ATOM      4  C   UNL     1      -1.374  -0.770   0.000  0.00  0.00    +0.000 A 
ATOM      5  C   UNL     1      -1.374  -1.595   0.000  0.00  0.00    +0.000 A 
ATOM      6  C   UNL     1      -0.659  -2.007   0.000  0.00  0.00    +0.000 A 
ATOM      7  C   UNL     1       0.055  -1.595   0.000  0.00  0.00    +0.000 A 
ATOM      8  F   UNL     1      -0.659  -2.832   0.000  0.00  0.00    +0.000 F 
ENDROOT
BRANCH   1  10
ATOM      9  C   UNL     1       1.484  -0.770   0.000  0.00  0.00    +0.000 A 
ATOM     10  C   UNL     1       0.770  -0.357   0.000  0.00  0.00    +0.000 A 
ATOM     11  N   UNL     1       0.770   0.468   0.000  0.00  0.00    +0.000 NA
ATOM     12  C   UNL     1       1.484   0.880   0.000  0.00  0.00    +0.000 A 
ATOM     13  N   UNL     1       2.199   0.468   0.000  0.00  0.00    +0.000 NA
ATOM     14  C   UNL     1       2.199  -0.357   0.000  0.00  0.00    +0.000 A 
ATOM     15  N   UNL     1       2.913  -0.770   0.000  0.00  0.00    +0.000 NA
BRANCH   9  16
ATOM     16  O   UNL     1       1.484  -1.595   0.000  0.00  0.00    +0.000 OA
BRANCH  16  17
ATOM     17  C   UNL     1       2.199  -2.007   0.000  0.00  0.00    +0.000 C 
BRANCH  17  18
ATOM     18  C   UNL     1       2.913  -1.595   0.000  0.00  0.00    +0.000 C 
BRANCH  18  19
ATOM     19  N   UNL     1       3.627  -2.007   0.000  0.00  0.00    +0.000 N 
ATOM     20  C   UNL     1       4.342  -1.595   0.000  0.00  0.00    +0.000 C 
ATOM     21  O   UNL     1       4.342  -0.770   0.000  0.00  0.00    +0.000 OA
ATOM     22  C   UNL     1       3.627  -2.832   0.000  0.00  0.00    +0.000 C 
BRANCH  20  23
ATOM     23  C   UNL     1       5.056  -2.007   0.000  0.00  0.00    +0.000 C 
ATOM     24  C   UNL     1       5.771  -1.595   0.000  0.00  0.00    +0.000 C 
ENDBRANCH  20  23
ENDBRANCH  18  19
ENDBRANCH  17  18
ENDBRANCH  16  17
ENDBRANCH   9  16
ENDBRANCH   1  10
BRANCH   4  25
ATOM     25  N   UNL     1      -2.088  -0.357   0.000  0.00  0.00    +0.000 NA
ATOM     26  C   UNL     1      -2.088   0.468   0.000  0.00  0.00    +0.000 C 
ATOM     27  O   UNL     1      -1.374   0.880   0.000  0.00  0.00    +0.000 OA
BRANCH  26  28
ATOM     28  C   UNL     1      -2.803   0.880   0.000  0.00  0.00    +0.000 A 
ATOM     29  C   UNL     1      -2.803   1.705   0.000  0.00  0.00    +0.000 A 
ATOM     30  F   UNL     1      -2.088   2.118   0.000  0.00  0.00    +0.000 F 
ATOM     31  C   UNL     1      -3.517   2.118   0.000  0.00  0.00    +0.000 A 
ATOM     32  C   UNL     1      -4.231   1.705   0.000  0.00  0.00    +0.000 A 
ATOM     33  C   UNL     1      -4.231   0.880   0.000  0.00  0.00    +0.000 A 
ATOM     34  C   UNL     1      -3.517   0.468   0.000  0.00  0.00    +0.000 A 
BRANCH  32  35
ATOM     35  C   UNL     1      -4.946   2.118   0.000  0.00  0.00    +0.000 C 
ATOM     36  C   UNL     1      -5.771   2.118   0.000  0.00  0.00    +0.000 C 
ATOM     37  C   UNL     1      -5.359   2.832   0.000  0.00  0.00    +0.000 C 
ENDBRANCH  32  35
ENDBRANCH  26  28
ENDBRANCH   4  25
TORSDOF 9
