REMARK  Name = 
REMARK  11 active torsions:
REMARK  status: ('A' for Active; 'I' for Inactive)
REMARK    1  A    between atoms: C_2  and  C_3
REMARK    2  A    between atoms: C_3  and  C_4
REMARK    3  A    between atoms: N_6  and  C_36
REMARK    4  A    between atoms: C_10  and  C_14
REMARK    5  A    between atoms: C_16  and  S_24
REMARK    6  A    between atoms: C_19  and  O_20
REMARK    7  A    between atoms: O_20  and  C_21
REMARK    8  A    between atoms: C_21  and  C_22
REMARK    9  A    between atoms: S_24  and  N_27
REMARK   10  A    between atoms: N_30  and  C_33
REMARK   11  A    between atoms: C_33  and  C_34
REMARK                            x       y       z     vdW  Elec       q    Type
REMARK                         _______ _______ _______ _____ _____    ______ ____
ROOT
ATOM      1  C   UNL     1       2.784   0.127   0.000  0.00  0.00    +0.000 A 
ATOM      2  C   UNL     1       2.784   0.952   0.000  0.00  0.00    +0.000 A 
ATOM      3  C   UNL     1       3.499   1.365   0.000  0.00  0.00    +0.000 A 
ATOM      4  C   UNL     1       4.213   0.952   0.000  0.00  0.00    +0.000 A 
ATOM      5  C   UNL     1       4.213   0.127   0.000  0.00  0.00    +0.000 A 
ATOM      6  C   UNL     1       3.499  -0.285   0.000  0.00  0.00    +0.000 A 
ENDROOT
BRANCH   1  13
ATOM      7  C   UNL     1      -0.143  -0.030   0.000  0.00  0.00    +0.000 A 
ATOM      8  C   UNL     1      -0.628  -0.698   0.000  0.00  0.00    +0.000 A 
ATOM      9  N   UNL     1      -0.143  -1.365   0.000  0.00  0.00    +0.000 N 
ATOM     10  C   UNL     1       0.641  -1.110   0.000  0.00  0.00    +0.000 A 
ATOM     11  C   UNL     1       0.641  -0.285   0.000  0.00  0.00    +0.000 A 
ATOM     12  N   UNL     1       1.356   0.127   0.000  0.00  0.00    +0.000 NA
ATOM     13  C   UNL     1       2.070  -0.285   0.000  0.00  0.00    +0.000 A 
ATOM     14  N   UNL     1       2.070  -1.110   0.000  0.00  0.00    +0.000 NA
ATOM     15  C   UNL     1       1.356  -1.523   0.000  0.00  0.00    +0.000 A 
ATOM     16  O   UNL     1       1.356  -2.348   0.000  0.00  0.00    +0.000 OA
BRANCH   9  17
ATOM     17  C   UNL     1      -0.398  -2.150   0.000  0.00  0.00    +0.000 C 
ATOM     18  C   UNL     1       0.154  -2.763   0.000  0.00  0.00    +0.000 C 
ENDBRANCH   9  17
BRANCH   7  19
ATOM     19  C   UNL     1      -0.398   0.754   0.000  0.00  0.00    +0.000 C 
BRANCH  19  21
ATOM     20  C   UNL     1      -1.460   1.710   0.000  0.00  0.00    +0.000 C 
ATOM     21  C   UNL     1      -1.205   0.926   0.000  0.00  0.00    +0.000 C 
ENDBRANCH  19  21
ENDBRANCH   7  19
ENDBRANCH   1  13
BRANCH   3  22
ATOM     22  S   UNL     1       3.499   2.190   0.000  0.00  0.00    +0.000 S 
ATOM     23  O   UNL     1       4.324   2.190   0.000  0.00  0.00    +0.000 OA
ATOM     24  O   UNL     1       2.674   2.190   0.000  0.00  0.00    +0.000 OA
BRANCH  22  25
ATOM     25  N   UNL     1       3.499   3.015   0.000  0.00  0.00    +0.000 NA
ATOM     26  C   UNL     1       2.784   3.427   0.000  0.00  0.00    +0.000 C 
ATOM     27  C   UNL     1       2.784   4.252   0.000  0.00  0.00    +0.000 C 
ATOM     28  N   UNL     1       3.499   4.665   0.000  0.00  0.00    +0.000 NA
ATOM     29  C   UNL     1       4.213   4.252   0.000  0.00  0.00    +0.000 C 
ATOM     30  C   UNL     1       4.213   3.427   0.000  0.00  0.00    +0.000 C 
BRANCH  28  31
ATOM     31  C   UNL     1       3.499   5.490   0.000  0.00  0.00    +0.000 C 
BRANCH  31  32
ATOM     32  C   UNL     1       4.213   5.902   0.000  0.00  0.00    +0.000 C 
ATOM     33  O   UNL     1       4.213   6.727   0.000  0.00  0.00    +0.000 OA
ENDBRANCH  31  32
ENDBRANCH  28  31
ENDBRANCH  22  25
ENDBRANCH   3  22
BRANCH   6  34
ATOM     34  O   UNL     1       3.499  -1.110   0.000  0.00  0.00    +0.000 OA
BRANCH  34  35
ATOM     35  C   UNL     1       2.784  -1.523   0.000  0.00  0.00    +0.000 C 
BRANCH  35  36
ATOM     36  C   UNL     1       2.784  -2.348   0.000  0.00  0.00    +0.000 C 
ATOM     37  C   UNL     1       2.070  -2.760   0.000  0.00  0.00    +0.000 C 
ENDBRANCH  35  36
ENDBRANCH  34  35
ENDBRANCH   6  34
TORSDOF 11
