REMARK  Name = 
REMARK  11 active torsions:
REMARK  status: ('A' for Active; 'I' for Inactive)
REMARK    1  A    between atoms: C_1  and  C_2
REMARK    2  A    between atoms: C_1  and  C_5
REMARK    3  A    between atoms: C_1  and  N_10
REMARK    4  A    between atoms: C_5  and  C_6
REMARK    5  A    between atoms: C_6  and  C_7
REMARK    6  A    between atoms: N_10  and  S_11
REMARK    7  A    between atoms: S_11  and  C_14
REMARK    8  A    between atoms: C_18  and  O_25
REMARK    9  A    between atoms: C_24  and  O_25
REMARK   10  A    between atoms: C_24  and  C_26
REMARK   11  A    between atoms: C_26  and  C_27
REMARK                            x       y       z     vdW  Elec       q    Type
REMARK                         _______ _______ _______ _____ _____    ______ ____
ROOT
ATOM      1  C   UNL     1       0.000   1.030   0.000  0.00  0.00    +0.000 A 
ATOM      2  C   UNL     1      -1.430   1.030   0.000  0.00  0.00    +0.000 A 
ATOM      3  C   UNL     1      -2.140   1.440   0.000  0.00  0.00    +0.000 A 
ATOM      4  C   UNL     1      -2.861   1.030   0.000  0.00  0.00    +0.000 A 
ATOM      5  C   UNL     1      -2.861   0.210   0.000  0.00  0.00    +0.000 A 
ATOM      6  C   UNL     1      -2.140  -0.210   0.000  0.00  0.00    +0.000 A 
ATOM      7  C   UNL     1      -1.430   0.210   0.000  0.00  0.00    +0.000 A 
ATOM      8  C   UNL     1      -0.710  -0.210   0.000  0.00  0.00    +0.000 A 
ATOM      9  C   UNL     1       0.000   0.210   0.000  0.00  0.00    +0.000 A 
ATOM     10  C   UNL     1      -0.710   1.440   0.000  0.00  0.00    +0.000 A 
ENDROOT
BRANCH   1  11
ATOM     11  S   UNL     1       0.710   1.440   0.000  0.00  0.00    +0.000 S 
ATOM     12  O   UNL     1       0.130   2.031   0.000  0.00  0.00    +0.000 OA
ATOM     13  O   UNL     1       1.300   2.031   0.000  0.00  0.00    +0.000 OA
BRANCH  11  14
ATOM     14  N   UNL     1       1.430   1.030   0.000  0.00  0.00    +0.000 NA
BRANCH  14  15
ATOM     15  C   UNL     1       2.141   1.440   0.000  0.00  0.00    +0.000 C 
BRANCH  15  16
ATOM     16  C   UNL     1       2.141   2.271   0.000  0.00  0.00    +0.000 C 
ATOM     17  O   UNL     1       1.430   2.681   0.000  0.00  0.00    +0.000 OA
ATOM     18  O   UNL     1       2.861   2.681   0.000  0.00  0.00    +0.000 OA
ENDBRANCH  15  16
BRANCH  15  19
ATOM     19  C   UNL     1       2.861   1.030   0.000  0.00  0.00    +0.000 C 
BRANCH  19  20
ATOM     20  C   UNL     1       3.571   1.440   0.000  0.00  0.00    +0.000 C 
BRANCH  20  21
ATOM     21  C   UNL     1       4.291   1.030   0.000  0.00  0.00    +0.000 C 
ATOM     22  O   UNL     1       5.001   1.440   0.000  0.00  0.00    +0.000 OA
ATOM     23  O   UNL     1       4.291   0.210   0.000  0.00  0.00    +0.000 OA
ENDBRANCH  20  21
ENDBRANCH  19  20
ENDBRANCH  15  19
ENDBRANCH  14  15
ENDBRANCH  11  14
ENDBRANCH   1  11
BRANCH   5  24
ATOM     24  O   UNL     1      -3.571  -0.210   0.000  0.00  0.00    +0.000 OA
BRANCH  24  25
ATOM     25  C   UNL     1      -3.571  -1.030   0.000  0.00  0.00    +0.000 C 
BRANCH  25  26
ATOM     26  C   UNL     1      -4.291  -1.440   0.000  0.00  0.00    +0.000 C 
BRANCH  26  27
ATOM     27  C   UNL     1      -4.291  -2.271   0.000  0.00  0.00    +0.000 C 
ATOM     28  C   UNL     1      -5.001  -2.681   0.000  0.00  0.00    +0.000 C 
ENDBRANCH  26  27
ENDBRANCH  25  26
ENDBRANCH  24  25
ENDBRANCH   5  24
TORSDOF 11
