REMARK  Name = 
REMARK  3 active torsions:
REMARK  status: ('A' for Active; 'I' for Inactive)
REMARK    1  A    between atoms: CB_1  and  CA_5
REMARK    2  A    between atoms: CB_1  and  CG_6
REMARK    3  A    between atoms: C_3  and  CA_5
REMARK                            x       y       z     vdW  Elec       q    Type
REMARK                         _______ _______ _______ _____ _____    ______ ____
ROOT
ATOM      1  CB  HIS A   1       0.568   1.939   0.000  0.00  0.00    +0.000 C 
ENDROOT
BRANCH   1   4
ATOM      2  CD2 HIS A   1       1.235   0.629   0.000  0.00  0.00    +0.000 A 
ATOM      3  CE1 HIS A   1       0.155  -0.155   0.000  0.00  0.00    +0.000 A 
ATOM      4  CG  HIS A   1       0.568   1.114   0.000  0.00  0.00    +0.000 A 
ATOM      5  NE2 HIS A   1       0.980  -0.155   0.000  0.00  0.00    +0.000 NA
ATOM      6  ND1 HIS A   1      -0.100   0.629   0.000  0.00  0.00    +0.000 NA
ENDBRANCH   1   4
BRANCH   1   7
ATOM      7  CA  HIS A   1      -0.147   2.352   0.000  0.00  0.00    +0.000 C 
ATOM      8  N   HIS A   1      -0.861   1.939   0.000  0.00  0.00    +0.000 NA
BRANCH   7   9
ATOM      9  C   HIS A   1      -0.147   3.177   0.000  0.00  0.00    +0.000 C 
ATOM     10  O   HIS A   1      -0.861   3.589   0.000  0.00  0.00    +0.000 OA
ENDBRANCH   7   9
ENDBRANCH   1   7
TORSDOF 3
