REMARK  Name = 
REMARK  16 active torsions:
REMARK  status: ('A' for Active; 'I' for Inactive)
REMARK    1  A    between atoms: C_15  and  C_24
REMARK    2  A    between atoms: C_16  and  C_31
REMARK    3  A    between atoms: C_16  and  N_39
REMARK    4  A    between atoms: C_17  and  C_26
REMARK    5  A    between atoms: C_17  and  O_49
REMARK    6  A    between atoms: C_19  and  C_35
REMARK    7  A    between atoms: C_19  and  N_45
REMARK    8  A    between atoms: C_22  and  C_33
REMARK    9  A    between atoms: C_22  and  C_35
REMARK   10  A    between atoms: C_23  and  N_44
REMARK   11  A    between atoms: C_23  and  O_50
REMARK   12  A    between atoms: C_25  and  C_30
REMARK   13  A    between atoms: C_28  and  C_35
REMARK   14  A    between atoms: C_31  and  O_49
REMARK   15  A    between atoms: C_32  and  N_43
REMARK   16  A    between atoms: C_34  and  O_50
REMARK                            x       y       z     vdW  Elec       q    Type
REMARK                         _______ _______ _______ _____ _____    ______ ____
ROOT
ATOM      1  C   UNL     1      -2.270  -1.948   0.000  0.00  0.00    +0.000 C 
ENDROOT
BRANCH   1   6
ATOM      2  C   UNL     1      -0.818  -0.383   0.000  0.00  0.00    +0.000 A 
ATOM      3  C   UNL     1      -0.818  -1.718   0.000  0.00  0.00    +0.000 A 
ATOM      4  N   UNL     1      -1.603  -0.638   0.000  0.00  0.00    +0.000 NA
ATOM      5  N   UNL     1      -0.333  -1.051   0.000  0.00  0.00    +0.000 N 
ATOM      6  N   UNL     1      -1.603  -1.463   0.000  0.00  0.00    +0.000 N 
BRANCH   5   8
ATOM      7  C   UNL     1       0.904  -1.765   0.000  0.00  0.00    +0.000 C 
ATOM      8  C   UNL     1       0.491  -1.051   0.000  0.00  0.00    +0.000 C 
BRANCH   8   9
ATOM      9  O   UNL     1       0.904  -0.336   0.000  0.00  0.00    +0.000 OA
BRANCH   9  11
ATOM     10  C   UNL     1       1.729   1.093   0.000  0.00  0.00    +0.000 C 
ATOM     11  C   UNL     1       1.729  -0.336   0.000  0.00  0.00    +0.000 C 
ATOM     12  N   UNL     1       2.142   0.378   0.000  0.00  0.00    +0.000 N 
ATOM     13  O   UNL     1       2.142  -1.051   0.000  0.00  0.00    +0.000 OA
BRANCH  12  18
ATOM     14  C   UNL     1       4.617   0.378   0.000  0.00  0.00    +0.000 A 
ATOM     15  C   UNL     1       4.204   1.093   0.000  0.00  0.00    +0.000 A 
ATOM     16  C   UNL     1       4.204  -0.336   0.000  0.00  0.00    +0.000 A 
ATOM     17  C   UNL     1       3.379   1.093   0.000  0.00  0.00    +0.000 A 
ATOM     18  C   UNL     1       2.966   0.378   0.000  0.00  0.00    +0.000 A 
ATOM     19  N   UNL     1       3.379  -0.336   0.000  0.00  0.00    +0.000 NA
BRANCH  17  20
ATOM     20  C   UNL     1       2.966   1.807   0.000  0.00  0.00    +0.000 C 
BRANCH  20  21
ATOM     21  O   UNL     1       3.379   2.522   0.000  0.00  0.00    +0.000 OA
BRANCH  21  22
ATOM     22  C   UNL     1       2.966   3.236   0.000  0.00  0.00    +0.000 C 
ATOM     23  O   UNL     1       2.142   3.236   0.000  0.00  0.00    +0.000 OA
BRANCH  22  24
ATOM     24  C   UNL     1       3.379   3.950   0.000  0.00  0.00    +0.000 C 
BRANCH  24  26
ATOM     25  C   UNL     1       3.379   5.379   0.000  0.00  0.00    +0.000 C 
ATOM     26  N   UNL     1       2.966   4.665   0.000  0.00  0.00    +0.000 NA
ENDBRANCH  24  26
ENDBRANCH  22  24
ENDBRANCH  21  22
ENDBRANCH  20  21
ENDBRANCH  17  20
ENDBRANCH  12  18
ENDBRANCH   9  11
ENDBRANCH   8   9
ENDBRANCH   5   8
ENDBRANCH   1   6
BRANCH   1  27
ATOM     27  C   UNL     1      -2.184  -2.769   0.000  0.00  0.00    +0.000 C 
ATOM     28  O   UNL     1      -1.364  -2.682   0.000  0.00  0.00    +0.000 OA
BRANCH  27  33
ATOM     29  C   UNL     1      -1.925  -5.230   0.000  0.00  0.00    +0.000 A 
ATOM     30  C   UNL     1      -1.258  -4.745   0.000  0.00  0.00    +0.000 A 
ATOM     31  C   UNL     1      -2.765  -4.074   0.000  0.00  0.00    +0.000 A 
ATOM     32  C   UNL     1      -2.679  -4.894   0.000  0.00  0.00    +0.000 A 
ATOM     33  C   UNL     1      -2.098  -3.589   0.000  0.00  0.00    +0.000 A 
ATOM     34  C   UNL     1      -1.344  -3.925   0.000  0.00  0.00    +0.000 A 
ATOM     35  F   UNL     1      -3.346  -5.379   0.000  0.00  0.00    +0.000 F 
ATOM     36  F   UNL     1      -0.677  -3.440   0.000  0.00  0.00    +0.000 F 
ENDBRANCH  27  33
BRANCH  27  38
ATOM     37  C   UNL     1      -3.340  -3.608   0.000  0.00  0.00    +0.000 C 
ATOM     38  C   UNL     1      -3.005  -2.855   0.000  0.00  0.00    +0.000 C 
BRANCH  38  41
ATOM     39  C   UNL     1      -4.569  -1.403   0.000  0.00  0.00    +0.000 A 
ATOM     40  C   UNL     1      -3.902  -0.918   0.000  0.00  0.00    +0.000 A 
ATOM     41  C   UNL     1      -3.490  -2.187   0.000  0.00  0.00    +0.000 A 
ATOM     42  N   UNL     1      -3.235  -1.403   0.000  0.00  0.00    +0.000 NA
ATOM     43  S   UNL     1      -4.314  -2.187   0.000  0.00  0.00    +0.000 S 
BRANCH  40  49
ATOM     44  C   UNL     1      -4.617   1.145   0.000  0.00  0.00    +0.000 A 
ATOM     45  C   UNL     1      -3.188   1.145   0.000  0.00  0.00    +0.000 A 
ATOM     46  C   UNL     1      -4.617   0.320   0.000  0.00  0.00    +0.000 A 
ATOM     47  C   UNL     1      -3.188   0.320   0.000  0.00  0.00    +0.000 A 
ATOM     48  C   UNL     1      -3.902   1.557   0.000  0.00  0.00    +0.000 A 
ATOM     49  C   UNL     1      -3.902  -0.093   0.000  0.00  0.00    +0.000 A 
BRANCH  48  50
ATOM     50  C   UNL     1      -3.902   2.382   0.000  0.00  0.00    +0.000 C 
ATOM     51  N   UNL     1      -3.902   3.207   0.000  0.00  0.00    +0.000 NA
ENDBRANCH  48  50
ENDBRANCH  40  49
ENDBRANCH  38  41
ENDBRANCH  27  38
ENDBRANCH   1  27
TORSDOF 16
