REMARK  Name = 
REMARK  2 active torsions:
REMARK  status: ('A' for Active; 'I' for Inactive)
REMARK    1  A    between atoms: C_6  and  C_7
REMARK    2  A    between atoms: C_15  and  C_17
REMARK                            x       y       z     vdW  Elec       q    Type
REMARK                         _______ _______ _______ _____ _____    ______ ____
ROOT
ATOM      1  C   UNL     1      -0.278  -1.306   0.000  0.00  0.00    +0.000 A 
ATOM      2  C   UNL     1       0.543  -1.220   0.000  0.00  0.00    +0.000 A 
ATOM      3  C   UNL     1       0.715  -0.412   0.000  0.00  0.00    +0.000 A 
ATOM      4  C   UNL     1       0.000   0.000   0.000  0.00  0.00    +0.000 A 
ATOM      5  S   UNL     1      -0.613  -0.552   0.000  0.00  0.00    +0.000 S 
ATOM      6  C   UNL     1       0.000   0.825   0.000  0.00  0.00    +0.000 A 
ATOM      7  O   UNL     1      -0.715   1.238   0.000  0.00  0.00    +0.000 OA
ATOM      8  N   UNL     1       0.715   1.238   0.000  0.00  0.00    +0.000 NA
ATOM      9  C   UNL     1       1.429   0.825   0.000  0.00  0.00    +0.000 A 
ATOM     10  N   UNL     1       1.429   0.000   0.000  0.00  0.00    +0.000 NA
ENDROOT
BRANCH   9  11
ATOM     11  C   UNL     1       2.143   1.238   0.000  0.00  0.00    +0.000 C 
ATOM     12  C   UNL     1       2.143   2.062   0.000  0.00  0.00    +0.000 C 
ATOM     13  C   UNL     1       2.858   2.475   0.000  0.00  0.00    +0.000 C 
ATOM     14  C   UNL     1       3.572   2.062   0.000  0.00  0.00    +0.000 C 
ATOM     15  C   UNL     1       3.572   1.238   0.000  0.00  0.00    +0.000 C 
ATOM     16  N   UNL     1       2.858   0.825   0.000  0.00  0.00    +0.000 NA
ATOM     17  C   UNL     1       2.995   1.375   0.000  0.00  0.00    +0.000 C 
ATOM     18  C   UNL     1       2.995   1.925   0.000  0.00  0.00    +0.000 C 
ENDBRANCH   9  11
BRANCH   1  24
ATOM     19  C   UNL     1       0.453  -2.945   0.000  0.00  0.00    +0.000 C 
ATOM     20  C   UNL     1      -0.354  -2.774   0.000  0.00  0.00    +0.000 A 
ATOM     21  N   UNL     1      -0.968  -3.326   0.000  0.00  0.00    +0.000 NA
ATOM     22  N   UNL     1      -1.682  -2.913   0.000  0.00  0.00    +0.000 NA
ATOM     23  C   UNL     1      -1.510  -2.106   0.000  0.00  0.00    +0.000 A 
ATOM     24  C   UNL     1      -0.690  -2.020   0.000  0.00  0.00    +0.000 A 
ENDBRANCH   1  24
TORSDOF 2
