REMARK  Name = 
REMARK  4 active torsions:
REMARK  status: ('A' for Active; 'I' for Inactive)
REMARK    1  A    between atoms: C_10  and  C_27
REMARK    2  A    between atoms: C_14  and  C_17
REMARK    3  A    between atoms: C_17  and  C_18
REMARK    4  A    between atoms: C_27  and  N_28
REMARK                            x       y       z     vdW  Elec       q    Type
REMARK                         _______ _______ _______ _____ _____    ______ ____
ROOT
ATOM      1  C   UNL     1       6.010   0.190   0.000  0.00  0.00    +0.000 C 
ATOM      2  C   UNL     1       5.674   0.943   0.000  0.00  0.00    +0.000 A 
ATOM      3  C   UNL     1       4.867   1.115   0.000  0.00  0.00    +0.000 A 
ATOM      4  C   UNL     1       4.781   1.935   0.000  0.00  0.00    +0.000 A 
ATOM      5  N   UNL     1       5.535   2.271   0.000  0.00  0.00    +0.000 NA
ATOM      6  N   UNL     1       6.087   1.658   0.000  0.00  0.00    +0.000 NA
ATOM      7  N   UNL     1       4.067   2.348   0.000  0.00  0.00    +0.000 NA
ATOM      8  C   UNL     1       3.352   1.935   0.000  0.00  0.00    +0.000 A 
ATOM      9  C   UNL     1       3.352   1.110   0.000  0.00  0.00    +0.000 A 
ATOM     10  C   UNL     1       2.638   0.698   0.000  0.00  0.00    +0.000 A 
ATOM     11  C   UNL     1       1.923   1.110   0.000  0.00  0.00    +0.000 A 
ATOM     12  N   UNL     1       1.139   0.856   0.000  0.00  0.00    +0.000 NA
ATOM     13  C   UNL     1       0.654   1.523   0.000  0.00  0.00    +0.000 A 
ATOM     14  C   UNL     1       1.139   2.190   0.000  0.00  0.00    +0.000 A 
ATOM     15  N   UNL     1       1.923   1.935   0.000  0.00  0.00    +0.000 N 
ATOM     16  N   UNL     1       2.638   2.348   0.000  0.00  0.00    +0.000 NA
ATOM     17  C   UNL     1      -0.171   1.523   0.000  0.00  0.00    +0.000 C 
ENDROOT
BRANCH  14  18
ATOM     18  C   UNL     1       0.884   2.975   0.000  0.00  0.00    +0.000 C 
BRANCH  18  19
ATOM     19  C   UNL     1       1.436   3.588   0.000  0.00  0.00    +0.000 A 
ATOM     20  C   UNL     1       2.243   3.417   0.000  0.00  0.00    +0.000 A 
ATOM     21  C   UNL     1       2.795   4.030   0.000  0.00  0.00    +0.000 A 
ATOM     22  C   UNL     1       2.540   4.814   0.000  0.00  0.00    +0.000 A 
ATOM     23  C   UNL     1       1.733   4.986   0.000  0.00  0.00    +0.000 A 
ATOM     24  C   UNL     1       1.181   4.373   0.000  0.00  0.00    +0.000 A 
ATOM     25  F   UNL     1       0.374   4.544   0.000  0.00  0.00    +0.000 F 
ATOM     26 CL   UNL     1       3.092   5.427   0.000  0.00  0.00    +0.000 Cl
ENDBRANCH  18  19
ENDBRANCH  14  18
BRANCH  10  27
ATOM     27  C   UNL     1       2.638  -0.127   0.000  0.00  0.00    +0.000 C 
BRANCH  27  28
ATOM     28  N   UNL     1       1.923  -0.540   0.000  0.00  0.00    +0.000 NA
ATOM     29  C   UNL     1       1.923  -1.365   0.000  0.00  0.00    +0.000 C 
ATOM     30  C   UNL     1       1.209  -1.777   0.000  0.00  0.00    +0.000 C 
ATOM     31  O   UNL     1       0.494  -1.365   0.000  0.00  0.00    +0.000 OA
ATOM     32  C   UNL     1       0.494  -0.540   0.000  0.00  0.00    +0.000 C 
ATOM     33  C   UNL     1       1.209  -0.127   0.000  0.00  0.00    +0.000 C 
ENDBRANCH  27  28
ENDBRANCH  10  27
TORSDOF 4
