REMARK  Name = 
REMARK  6 active torsions:
REMARK  status: ('A' for Active; 'I' for Inactive)
REMARK    1  A    between atoms: C_6  and  C_11
REMARK    2  A    between atoms: C_11  and  C_20
REMARK    3  A    between atoms: C_12  and  O_25
REMARK    4  A    between atoms: C_18  and  O_25
REMARK    5  A    between atoms: C_19  and  O_27
REMARK    6  A    between atoms: C_20  and  O_27
REMARK                            x       y       z     vdW  Elec       q    Type
REMARK                         _______ _______ _______ _____ _____    ______ ____
ROOT
ATOM      1  C   UNL     1       4.189   1.381   0.000  0.00  0.00    +0.000 C 
ATOM      2  C   UNL     1       4.719   0.462   0.000  0.00  0.00    +0.000 C 
ATOM      3  C   UNL     1       7.859   1.238   0.000  0.00  0.00    +0.000 A 
ATOM      4  C   UNL     1       8.574   2.475   0.000  0.00  0.00    +0.000 A 
ATOM      5  C   UNL     1       7.145   0.825   0.000  0.00  0.00    +0.000 A 
ATOM      6  C   UNL     1       8.574   3.300   0.000  0.00  0.00    +0.000 A 
ATOM      7  C   UNL     1       7.859   2.062   0.000  0.00  0.00    +0.000 A 
ATOM      8  C   UNL     1       6.430   1.238   0.000  0.00  0.00    +0.000 A 
ATOM      9  C   UNL     1       7.859   3.712   0.000  0.00  0.00    +0.000 A 
ATOM     10  C   UNL     1       6.430   2.062   0.000  0.00  0.00    +0.000 A 
ATOM     11  C   UNL     1       7.145   2.475   0.000  0.00  0.00    +0.000 A 
ATOM     12  C   UNL     1       5.716   2.475   0.000  0.00  0.00    +0.000 C 
ATOM     13  C   UNL     1       5.001   2.062   0.000  0.00  0.00    +0.000 C 
ATOM     14  C   UNL     1       5.001   1.238   0.000  0.00  0.00    +0.000 C 
ATOM     15  O   UNL     1       7.859   4.537   0.000  0.00  0.00    +0.000 OA
ATOM     16  O   UNL     1       7.145   3.300   0.000  0.00  0.00    +0.000 OA
ATOM     17  O   UNL     1       5.716   0.825   0.000  0.00  0.00    +0.000 OA
ENDROOT
BRANCH  12  18
ATOM     18  O   UNL     1       5.716   3.300   0.000  0.00  0.00    +0.000 OA
BRANCH  18  20
ATOM     19  C   UNL     1       5.001   4.537   0.000  0.00  0.00    +0.000 C 
ATOM     20  C   UNL     1       5.001   3.712   0.000  0.00  0.00    +0.000 C 
ATOM     21  O   UNL     1       4.287   3.300   0.000  0.00  0.00    +0.000 OA
ENDBRANCH  18  20
ENDBRANCH  12  18
BRANCH  13  22
ATOM     22  O   UNL     1       4.287   2.475   0.000  0.00  0.00    +0.000 OA
BRANCH  22  23
ATOM     23  C   UNL     1       3.572   2.062   0.000  0.00  0.00    +0.000 C 
ATOM     24  O   UNL     1       3.572   1.238   0.000  0.00  0.00    +0.000 OA
BRANCH  23  26
ATOM     25  C   UNL     1       2.858   3.300   0.000  0.00  0.00    +0.000 C 
ATOM     26  C   UNL     1       2.858   2.475   0.000  0.00  0.00    +0.000 C 
BRANCH  26  28
ATOM     27  C   UNL     1       1.429   2.475   0.000  0.00  0.00    +0.000 C 
ATOM     28  C   UNL     1       2.143   2.062   0.000  0.00  0.00    +0.000 C 
ENDBRANCH  26  28
ENDBRANCH  23  26
ENDBRANCH  22  23
ENDBRANCH  13  22
TORSDOF 6
