REMARK  Name = 
REMARK  10 active torsions:
REMARK  status: ('A' for Active; 'I' for Inactive)
REMARK    1  A    between atoms: C_1  and  C_14
REMARK    2  A    between atoms: C_4  and  C_7
REMARK    3  A    between atoms: C_7  and  P_10
REMARK    4  A    between atoms: C_14  and  C_15
REMARK    5  A    between atoms: C_15  and  C_16
REMARK    6  A    between atoms: C_15  and  N_19
REMARK    7  A    between atoms: N_17  and  C_23
REMARK    8  A    between atoms: N_25  and  C_29
REMARK    9  A    between atoms: C_29  and  C_30
REMARK   10  A    between atoms: C_35  and  C_38
REMARK                            x       y       z     vdW  Elec       q    Type
REMARK                         _______ _______ _______ _____ _____    ______ ____
ROOT
ATOM      1  C   UNL     1       2.419  -0.268   0.000  0.00  0.00    +0.000 C 
ATOM      2  N   UNL     1       2.007  -0.982   0.000  0.00  0.00    +0.000 NA
ATOM      3  O   UNL     1       2.007   0.447   0.000  0.00  0.00    +0.000 OA
ENDROOT
BRANCH   2   4
ATOM      4  C   UNL     1       1.182  -0.982   0.000  0.00  0.00    +0.000 C 
ATOM      5  C   UNL     1       0.824  -1.725   0.000  0.00  0.00    +0.000 C 
ATOM      6  N   UNL     1       0.019  -1.909   0.000  0.00  0.00    +0.000 N 
ATOM      7  O   UNL     1       1.338  -2.370   0.000  0.00  0.00    +0.000 OA
ATOM      8  C   UNL     1      -0.625  -1.395   0.000  0.00  0.00    +0.000 C 
ATOM      9  C   UNL     1      -0.625  -0.570   0.000  0.00  0.00    +0.000 C 
ATOM     10  C   UNL     1       0.019  -0.055   0.000  0.00  0.00    +0.000 C 
ATOM     11  C   UNL     1       0.824  -0.239   0.000  0.00  0.00    +0.000 C 
BRANCH   6  12
ATOM     12  C   UNL     1      -0.164  -2.713   0.000  0.00  0.00    +0.000 C 
BRANCH  12  13
ATOM     13  C   UNL     1      -0.953  -2.957   0.000  0.00  0.00    +0.000 A 
ATOM     14  C   UNL     1      -1.136  -3.761   0.000  0.00  0.00    +0.000 A 
ATOM     15  C   UNL     1      -1.924  -4.004   0.000  0.00  0.00    +0.000 A 
ATOM     16  C   UNL     1      -2.529  -3.443   0.000  0.00  0.00    +0.000 A 
ATOM     17  C   UNL     1      -2.346  -2.639   0.000  0.00  0.00    +0.000 A 
ATOM     18  C   UNL     1      -1.557  -2.395   0.000  0.00  0.00    +0.000 A 
BRANCH  16  19
ATOM     19  C   UNL     1      -3.317  -3.686   0.000  0.00  0.00    +0.000 A 
ATOM     20  C   UNL     1      -3.501  -4.490   0.000  0.00  0.00    +0.000 A 
ATOM     21  C   UNL     1      -4.289  -4.734   0.000  0.00  0.00    +0.000 A 
ATOM     22  C   UNL     1      -4.894  -4.172   0.000  0.00  0.00    +0.000 A 
ATOM     23  C   UNL     1      -4.711  -3.368   0.000  0.00  0.00    +0.000 A 
ATOM     24  C   UNL     1      -3.922  -3.125   0.000  0.00  0.00    +0.000 A 
ENDBRANCH  16  19
ENDBRANCH  12  13
ENDBRANCH   6  12
ENDBRANCH   2   4
BRANCH   1  25
ATOM     25  C   UNL     1       3.244  -0.268   0.000  0.00  0.00    +0.000 C 
BRANCH  25  26
ATOM     26  N   UNL     1       3.657  -0.982   0.000  0.00  0.00    +0.000 NA
ATOM     27  C   UNL     1       4.482  -0.982   0.000  0.00  0.00    +0.000 C 
ATOM     28  O   UNL     1       4.894  -0.268   0.000  0.00  0.00    +0.000 OA
ATOM     29  C   UNL     1       4.894  -1.697   0.000  0.00  0.00    +0.000 C 
ENDBRANCH  25  26
BRANCH  25  30
ATOM     30  C   UNL     1       3.657   0.447   0.000  0.00  0.00    +0.000 C 
BRANCH  30  31
ATOM     31  C   UNL     1       3.244   1.161   0.000  0.00  0.00    +0.000 A 
ATOM     32  C   UNL     1       2.419   1.161   0.000  0.00  0.00    +0.000 A 
ATOM     33  C   UNL     1       2.007   1.876   0.000  0.00  0.00    +0.000 A 
ATOM     34  C   UNL     1       2.419   2.590   0.000  0.00  0.00    +0.000 A 
ATOM     35  C   UNL     1       3.244   2.590   0.000  0.00  0.00    +0.000 A 
ATOM     36  C   UNL     1       3.657   1.876   0.000  0.00  0.00    +0.000 A 
BRANCH  34  37
ATOM     37  C   UNL     1       2.007   3.305   0.000  0.00  0.00    +0.000 C 
ATOM     38  F   UNL     1       1.292   2.892   0.000  0.00  0.00    +0.000 F 
ATOM     39  F   UNL     1       2.721   3.717   0.000  0.00  0.00    +0.000 F 
BRANCH  37  40
ATOM     40  P   UNL     1       1.594   4.019   0.000  0.00  0.00    +0.000 P 
ATOM     41  O   UNL     1       1.182   4.734   0.000  0.00  0.00    +0.000 OA
ATOM     42  O   UNL     1       0.880   3.607   0.000  0.00  0.00    +0.000 OA
ATOM     43  O   UNL     1       2.309   4.431   0.000  0.00  0.00    +0.000 OA
ENDBRANCH  37  40
ENDBRANCH  34  37
ENDBRANCH  30  31
ENDBRANCH  25  30
ENDBRANCH   1  25
TORSDOF 10
