REMARK  Name = 
REMARK  1 active torsions:
REMARK  status: ('A' for Active; 'I' for Inactive)
REMARK    1  A    between atoms: C_1  and  C_2
REMARK                            x       y       z     vdW  Elec       q    Type
REMARK                         _______ _______ _______ _____ _____    ______ ____
ROOT
ATOM      1  C   UNL     1      -0.008  -0.108   0.000  0.00  0.00    +0.000 A 
ATOM      2  C   UNL     1      -0.827  -0.013   0.000  0.00  0.00    +0.000 A 
ATOM      3  N   UNL     1       0.156  -0.917   0.000  0.00  0.00    +0.000 NA
ATOM      4  N   UNL     1      -1.171  -0.764   0.000  0.00  0.00    +0.000 NA
ATOM      5  S   UNL     1      -0.563  -1.321   0.000  0.00  0.00    +0.000 S 
ATOM      6  O   UNL     1      -1.232   0.706   0.000  0.00  0.00    +0.000 OA
ENDROOT
BRANCH   1   7
ATOM      7  C   UNL     1       0.404   0.608   0.000  0.00  0.00    +0.000 C 
ATOM      8  O   UNL     1      -0.008   1.321   0.000  0.00  0.00    +0.000 OA
ATOM      9  O   UNL     1       1.232   0.608   0.000  0.00  0.00    +0.000 OA
ENDBRANCH   1   7
TORSDOF 1
