REMARK  Name = 
REMARK  3 active torsions:
REMARK  status: ('A' for Active; 'I' for Inactive)
REMARK    1  A    between atoms: C_1  and  C_8
REMARK    2  A    between atoms: N_2  and  C_3
REMARK    3  A    between atoms: C_3  and  C_4
REMARK                            x       y       z     vdW  Elec       q    Type
REMARK                         _______ _______ _______ _____ _____    ______ ____
ROOT
ATOM      1  C   UNL     1      -0.357  -0.445   0.000  0.00  0.00    +0.000 C 
ATOM      2  N   UNL     1       0.358  -0.034   0.000  0.00  0.00    +0.000 NA
ATOM      3  O   UNL     1      -0.357  -1.271   0.000  0.00  0.00    +0.000 OA
ENDROOT
BRANCH   1   4
ATOM      4  C   UNL     1      -1.071  -0.034   0.000  0.00  0.00    +0.000 A 
ATOM      5  C   UNL     1      -1.074   0.791   0.000  0.00  0.00    +0.000 A 
ATOM      6  I   UNL     1      -0.246   1.271   0.000  0.00  0.00    +0.000 I 
ATOM      7  C   UNL     1      -1.788   1.203   0.000  0.00  0.00    +0.000 A 
ATOM      8  C   UNL     1      -2.502   0.789   0.000  0.00  0.00    +0.000 A 
ATOM      9  C   UNL     1      -2.502  -0.037   0.000  0.00  0.00    +0.000 A 
ATOM     10  C   UNL     1      -1.785  -0.448   0.000  0.00  0.00    +0.000 A 
ENDBRANCH   1   4
BRANCH   2  11
ATOM     11  C   UNL     1       1.073  -0.445   0.000  0.00  0.00    +0.000 C 
BRANCH  11  12
ATOM     12  C   UNL     1       1.787  -0.034   0.000  0.00  0.00    +0.000 C 
ATOM     13  O   UNL     1       2.502  -0.445   0.000  0.00  0.00    +0.000 OA
ATOM     14  O   UNL     1       1.787   0.791   0.000  0.00  0.00    +0.000 OA
ENDBRANCH  11  12
ENDBRANCH   2  11
TORSDOF 3
REMARK  Name = 
REMARK  3 active torsions:
REMARK  status: ('A' for Active; 'I' for Inactive)
REMARK    1  A    between atoms: C_1  and  C_8
REMARK    2  A    between atoms: N_2  and  C_3
REMARK    3  A    between atoms: C_3  and  C_4
REMARK                            x       y       z     vdW  Elec       q    Type
REMARK                         _______ _______ _______ _____ _____    ______ ____
ROOT
ATOM      1 NA   UNL     1       1.755  -1.163   0.000  0.00  0.00    +0.000 Na
ENDROOT
TORSDOF 0
