REMARK  Name = 
REMARK  4 active torsions:
REMARK  status: ('A' for Active; 'I' for Inactive)
REMARK    1  A    between atoms: C_13  and  C_14
REMARK    2  A    between atoms: C_14  and  C_18
REMARK    3  A    between atoms: C_16  and  N_21
REMARK    4  A    between atoms: C_17  and  N_22
REMARK                            x       y       z     vdW  Elec       q    Type
REMARK                         _______ _______ _______ _____ _____    ______ ____
ROOT
ATOM      1  C   UNL     1       3.419   1.805   0.000  0.00  0.00    +0.000 C 
ATOM      2  C   UNL     1       2.751   2.290   0.000  0.00  0.00    +0.000 C 
ATOM      3  C   UNL     1       3.164   1.021   0.000  0.00  0.00    +0.000 C 
ATOM      4  N   UNL     1       2.084   1.805   0.000  0.00  0.00    +0.000 N 
ATOM      5  N   UNL     1       2.339   1.021   0.000  0.00  0.00    +0.000 N 
ATOM      6  O   UNL     1       2.751   3.115   0.000  0.00  0.00    +0.000 OA
ATOM      7  O   UNL     1       3.649   0.353   0.000  0.00  0.00    +0.000 OA
ENDROOT
BRANCH   4  13
ATOM      8  C   UNL     1      -0.270   2.570   0.000  0.00  0.00    +0.000 A 
ATOM      9  C   UNL     1      -0.099   1.763   0.000  0.00  0.00    +0.000 A 
ATOM     10  C   UNL     1       0.343   3.122   0.000  0.00  0.00    +0.000 A 
ATOM     11  C   UNL     1       0.686   1.508   0.000  0.00  0.00    +0.000 A 
ATOM     12  C   UNL     1       1.128   2.867   0.000  0.00  0.00    +0.000 A 
ATOM     13  C   UNL     1       1.299   2.060   0.000  0.00  0.00    +0.000 A 
ENDBRANCH   4  13
BRANCH   5  19
ATOM     14  C   UNL     1       0.884  -0.982   0.000  0.00  0.00    +0.000 A 
ATOM     15  C   UNL     1       1.704  -1.068   0.000  0.00  0.00    +0.000 A 
ATOM     16  C   UNL     1       0.548  -0.228   0.000  0.00  0.00    +0.000 A 
ATOM     17  C   UNL     1       2.189  -0.401   0.000  0.00  0.00    +0.000 A 
ATOM     18  C   UNL     1       1.033   0.439   0.000  0.00  0.00    +0.000 A 
ATOM     19  C   UNL     1       1.854   0.353   0.000  0.00  0.00    +0.000 A 
ENDBRANCH   5  19
BRANCH   1  20
ATOM     20  C   UNL     1       4.203   2.060   0.000  0.00  0.00    +0.000 C 
BRANCH  20  23
ATOM     21  C   UNL     1       5.772   2.570   0.000  0.00  0.00    +0.000 C 
ATOM     22  C   UNL     1       6.214   1.211   0.000  0.00  0.00    +0.000 C 
ATOM     23  C   UNL     1       4.816   1.508   0.000  0.00  0.00    +0.000 C 
ATOM     24  C   UNL     1       5.601   1.763   0.000  0.00  0.00    +0.000 C 
ENDBRANCH  20  23
ENDBRANCH   1  20
TORSDOF 4
