REMARK  Name = 
REMARK  4 active torsions:
REMARK  status: ('A' for Active; 'I' for Inactive)
REMARK    1  A    between atoms: C_3  and  C_13
REMARK    2  A    between atoms: C_6  and  C_7
REMARK    3  A    between atoms: C_7  and  N_8
REMARK    4  A    between atoms: C_14  and  C_15
REMARK                            x       y       z     vdW  Elec       q    Type
REMARK                         _______ _______ _______ _____ _____    ______ ____
ROOT
ATOM      1  C   UNL     1       4.180   3.115   0.000  0.00  0.00    +0.000 A 
ATOM      2  C   UNL     1       4.895   3.528   0.000  0.00  0.00    +0.000 A 
ATOM      3  C   UNL     1       5.609   3.115   0.000  0.00  0.00    +0.000 A 
ATOM      4  C   UNL     1       5.609   2.290   0.000  0.00  0.00    +0.000 A 
ATOM      5  C   UNL     1       4.895   1.878   0.000  0.00  0.00    +0.000 A 
ATOM      6  C   UNL     1       4.180   2.290   0.000  0.00  0.00    +0.000 A 
ENDROOT
BRANCH   3   7
ATOM      7  C   UNL     1       6.324   3.528   0.000  0.00  0.00    +0.000 C 
ATOM      8  C   UNL     1       7.038   3.115   0.000  0.00  0.00    +0.000 C 
BRANCH   8   9
ATOM      9  C   UNL     1       7.753   3.528   0.000  0.00  0.00    +0.000 C 
ATOM     10  O   UNL     1       7.753   4.353   0.000  0.00  0.00    +0.000 OA
ATOM     11  O   UNL     1       8.467   3.115   0.000  0.00  0.00    +0.000 OA
ENDBRANCH   8   9
ENDBRANCH   3   7
BRANCH   6  12
ATOM     12  C   UNL     1       3.466   1.878   0.000  0.00  0.00    +0.000 C 
BRANCH  12  13
ATOM     13  N   UNL     1       3.466   1.053   0.000  0.00  0.00    +0.000 N 
ATOM     14  C   UNL     1       4.133   0.568   0.000  0.00  0.00    +0.000 A 
ATOM     15  C   UNL     1       3.878  -0.217   0.000  0.00  0.00    +0.000 A 
ATOM     16  N   UNL     1       3.053  -0.217   0.000  0.00  0.00    +0.000 NA
ATOM     17  C   UNL     1       2.798   0.568   0.000  0.00  0.00    +0.000 A 
ENDBRANCH  12  13
ENDBRANCH   6  12
TORSDOF 4
