REMARK  Name = 
REMARK  0 active torsions:
REMARK  status: ('A' for Active; 'I' for Inactive)
REMARK                            x       y       z     vdW  Elec       q    Type
REMARK                         _______ _______ _______ _____ _____    ______ ____
ROOT
ATOM      1  C   UNL     1      -0.184   0.633   0.000  0.00  0.00    +0.000 C 
ATOM      2  C   UNL     1       0.198  -0.071   0.000  0.00  0.00    +0.000 C 
ATOM      3  C   UNL     1       0.229   1.339   0.000  0.00  0.00    +0.000 C 
ATOM      4  C   UNL     1      -1.107   0.411   0.000  0.00  0.00    +0.000 A 
ATOM      5  C   UNL     1      -0.998   0.823   0.000  0.00  0.00    +0.000 C 
ATOM      6  C   UNL     1       1.023  -0.086   0.000  0.00  0.00    +0.000 C 
ATOM      7  N   UNL     1      -0.206  -0.775   0.000  0.00  0.00    +0.000 N 
ATOM      8  N   UNL     1       0.019   2.078   0.000  0.00  0.00    +0.000 NA
ATOM      9  C   UNL     1       1.053   1.341   0.000  0.00  0.00    +0.000 C 
ATOM     10  C   UNL     1      -1.107  -0.518   0.000  0.00  0.00    +0.000 A 
ATOM     11  C   UNL     1      -1.900   0.890   0.000  0.00  0.00    +0.000 A 
ATOM     12  C   UNL     1      -1.056   1.766   0.000  0.00  0.00    +0.000 C 
ATOM     13  C   UNL     1       1.446   0.620   0.000  0.00  0.00    +0.000 C 
ATOM     14  C   UNL     1       1.433  -0.796   0.000  0.00  0.00    +0.000 C 
ATOM     15  C   UNL     1       0.186  -1.490   0.000  0.00  0.00    +0.000 C 
ATOM     16  C   UNL     1       1.534   2.197   0.000  0.00  0.00    +0.000 C 
ATOM     17  C   UNL     1      -1.932  -0.971   0.000  0.00  0.00    +0.000 A 
ATOM     18  C   UNL     1      -2.723   0.434   0.000  0.00  0.00    +0.000 A 
ATOM     19  C   UNL     1       2.176   0.738   0.000  0.00  0.00    +0.000 C 
ATOM     20  C   UNL     1       1.004  -1.500   0.000  0.00  0.00    +0.000 C 
ATOM     21  O   UNL     1       2.154  -0.934   0.000  0.00  0.00    +0.000 OA
ATOM     22  O   UNL     1      -0.235  -2.197   0.000  0.00  0.00    +0.000 OA
ATOM     23  C   UNL     1      -2.727  -0.500   0.000  0.00  0.00    +0.000 A 
ATOM     24  C   UNL     1       2.727   0.270   0.000  0.00  0.00    +0.000 C 
ATOM     25  C   UNL     1       2.721  -0.466   0.000  0.00  0.00    +0.000 C 
ENDROOT
TORSDOF 0
