REMARK  Name = 
REMARK  1 active torsions:
REMARK  status: ('A' for Active; 'I' for Inactive)
REMARK    1  A    between atoms: C_1  and  C_11
REMARK                            x       y       z     vdW  Elec       q    Type
REMARK                         _______ _______ _______ _____ _____    ______ ____
ROOT
ATOM      1  C   UNL     1       0.240  -0.001   0.000  0.00  0.00    +0.000 C 
ATOM      2  C   UNL     1      -0.166  -0.711   0.000  0.00  0.00    +0.000 A 
ATOM      3  N   UNL     1       1.058   0.115   0.000  0.00  0.00    +0.000 NA
ATOM      4  C   UNL     1       0.127  -1.482   0.000  0.00  0.00    +0.000 A 
ATOM      5  N   UNL     1       0.913  -1.726   0.000  0.00  0.00    +0.000 NA
ATOM      6  O   UNL     1      -0.115   0.736   0.000  0.00  0.00    +0.000 OA
ATOM      7  C   UNL     1       1.598  -1.265   0.000  0.00  0.00    +0.000 C 
ATOM      8  C   UNL     1       1.664  -0.437   0.000  0.00  0.00    +0.000 C 
ATOM      9  C   UNL     1       1.194   0.928   0.000  0.00  0.00    +0.000 C 
ATOM     10  C   UNL     1      -0.975  -0.588   0.000  0.00  0.00    +0.000 A 
ATOM     11  C   UNL     1       0.462   1.307   0.000  0.00  0.00    +0.000 C 
ATOM     12  O   UNL     1       2.310  -1.682   0.000  0.00  0.00    +0.000 OA
ATOM     13  C   UNL     1      -0.376  -2.125   0.000  0.00  0.00    +0.000 A 
ATOM     14  C   UNL     1      -1.497  -1.231   0.000  0.00  0.00    +0.000 A 
ATOM     15  C   UNL     1      -1.194  -1.997   0.000  0.00  0.00    +0.000 A 
ATOM     16 CL   UNL     1      -2.310  -1.105   0.000  0.00  0.00    +0.000 Cl
ATOM     17  C   UNL     1       0.344   2.125   0.000  0.00  0.00    +0.000 C 
ENDROOT
BRANCH   1  18
ATOM     18  C   UNL     1      -0.516   0.299   0.000  0.00  0.00    +0.000 A 
ATOM     19  C   UNL     1      -1.164  -0.201   0.000  0.00  0.00    +0.000 A 
ATOM     20  C   UNL     1      -0.627   1.120   0.000  0.00  0.00    +0.000 A 
ATOM     21  C   UNL     1      -1.933   0.095   0.000  0.00  0.00    +0.000 A 
ATOM     22  C   UNL     1      -1.396   1.425   0.000  0.00  0.00    +0.000 A 
ATOM     23  C   UNL     1      -2.046   0.913   0.000  0.00  0.00    +0.000 A 
ENDBRANCH   1  18
TORSDOF 1
