REMARK  Name = 
REMARK  7 active torsions:
REMARK  status: ('A' for Active; 'I' for Inactive)
REMARK    1  A    between atoms: C_7  and  N_8
REMARK    2  A    between atoms: C_9  and  C_11
REMARK    3  A    between atoms: C_11  and  N_12
REMARK    4  A    between atoms: N_12  and  C_13
REMARK    5  A    between atoms: N_12  and  C_17
REMARK    6  A    between atoms: C_13  and  C_14
REMARK    7  A    between atoms: C_17  and  C_18
REMARK                            x       y       z     vdW  Elec       q    Type
REMARK                         _______ _______ _______ _____ _____    ______ ____
ROOT
ATOM      1  N   UNL     1      -1.562   0.000   0.000  0.00  0.00    +0.000 NA
ATOM      2  C   UNL     1      -0.737   0.000   0.000  0.00  0.00    +0.000 C 
ATOM      3  O   UNL     1      -0.324  -0.714   0.000  0.00  0.00    +0.000 OA
ENDROOT
BRANCH   1  10
ATOM      4  C   UNL     1      -0.737  -1.429   0.000  0.00  0.00    +0.000 C 
ATOM      5  C   UNL     1      -1.562  -1.429   0.000  0.00  0.00    +0.000 A 
ATOM      6  C   UNL     1      -1.974  -2.143   0.000  0.00  0.00    +0.000 A 
ATOM      7  C   UNL     1      -2.799  -2.143   0.000  0.00  0.00    +0.000 A 
ATOM      8  C   UNL     1      -3.212  -1.429   0.000  0.00  0.00    +0.000 A 
ATOM      9  C   UNL     1      -2.799  -0.714   0.000  0.00  0.00    +0.000 A 
ATOM     10  C   UNL     1      -1.974  -0.714   0.000  0.00  0.00    +0.000 A 
ATOM     11  C   UNL     1      -3.212   0.000   0.000  0.00  0.00    +0.000 C 
ATOM     12 BR   UNL     1      -4.037  -1.429   0.000  0.00  0.00    +0.000 Br
ATOM     13  C   UNL     1      -3.212  -2.858   0.000  0.00  0.00    +0.000 C 
ENDBRANCH   1  10
BRANCH   2  14
ATOM     14  C   UNL     1      -0.324   0.714   0.000  0.00  0.00    +0.000 C 
BRANCH  14  15
ATOM     15  N   UNL     1       0.501   0.714   0.000  0.00  0.00    +0.000 NA
BRANCH  15  16
ATOM     16  C   UNL     1       0.913   0.000   0.000  0.00  0.00    +0.000 C 
BRANCH  16  17
ATOM     17  C   UNL     1       1.738   0.000   0.000  0.00  0.00    +0.000 C 
ATOM     18  O   UNL     1       2.151   0.714   0.000  0.00  0.00    +0.000 OA
ATOM     19  O   UNL     1       2.151  -0.714   0.000  0.00  0.00    +0.000 OA
ENDBRANCH  16  17
ENDBRANCH  15  16
BRANCH  15  20
ATOM     20  C   UNL     1       0.913   1.429   0.000  0.00  0.00    +0.000 C 
BRANCH  20  21
ATOM     21  C   UNL     1       0.501   2.143   0.000  0.00  0.00    +0.000 C 
ATOM     22  O   UNL     1       0.913   2.858   0.000  0.00  0.00    +0.000 OA
ATOM     23  O   UNL     1      -0.324   2.143   0.000  0.00  0.00    +0.000 OA
ENDBRANCH  20  21
ENDBRANCH  15  20
ENDBRANCH  14  15
ENDBRANCH   2  14
TORSDOF 7
REMARK  Name = 
REMARK  7 active torsions:
REMARK  status: ('A' for Active; 'I' for Inactive)
REMARK    1  A    between atoms: C_7  and  N_8
REMARK    2  A    between atoms: C_9  and  C_11
REMARK    3  A    between atoms: C_11  and  N_12
REMARK    4  A    between atoms: N_12  and  C_13
REMARK    5  A    between atoms: N_12  and  C_17
REMARK    6  A    between atoms: C_13  and  C_14
REMARK    7  A    between atoms: C_17  and  C_18
REMARK                            x       y       z     vdW  Elec       q    Type
REMARK                         _______ _______ _______ _____ _____    ______ ____
ROOT
ATOM      1 TC   UNL     1       4.037  -0.217   0.000  0.00  0.00    +0.000 Tc
ENDROOT
TORSDOF 0
