REMARK  Name = 
REMARK  11 active torsions:
REMARK  status: ('A' for Active; 'I' for Inactive)
REMARK    1  A    between atoms: P_1  and  C_12
REMARK    2  A    between atoms: O_5  and  C_18
REMARK    3  A    between atoms: O_5  and  C_31
REMARK    4  A    between atoms: N_10  and  C_25
REMARK    5  A    between atoms: N_11  and  C_32
REMARK    6  A    between atoms: N_11  and  C_33
REMARK    7  A    between atoms: N_11  and  C_34
REMARK    8  A    between atoms: C_13  and  C_16
REMARK    9  A    between atoms: C_14  and  C_18
REMARK   10  A    between atoms: C_31  and  C_32
REMARK   11  A    between atoms: C_34  and  C_35
REMARK                            x       y       z     vdW  Elec       q    Type
REMARK                         _______ _______ _______ _____ _____    ______ ____
ROOT
ATOM      1  N   UNL     1      -1.743   2.470   0.000  0.00  0.00    +0.000 NA
ATOM      2  C   UNL     1      -2.486   1.221   0.000  0.00  0.00    +0.000 C 
ATOM      3  C   UNL     1      -1.743   0.812   0.000  0.00  0.00    +0.000 C 
ATOM      4  C   UNL     1      -1.033   1.221   0.000  0.00  0.00    +0.000 C 
ATOM      5  C   UNL     1      -2.486   2.050   0.000  0.00  0.00    +0.000 C 
ATOM      6  C   UNL     1      -1.033   2.050   0.000  0.00  0.00    +0.000 C 
ATOM      7  C   UNL     1      -3.185   2.470   0.000  0.00  0.00    +0.000 C 
ATOM      8  C   UNL     1      -0.334   2.502   0.000  0.00  0.00    +0.000 C 
ENDROOT
BRANCH   2   9
ATOM      9  P   UNL     1      -3.185   0.812   0.000  0.00  0.00    +0.000 P 
ATOM     10  O   UNL     1      -3.185  -0.016   0.000  0.00  0.00    +0.000 OA
ATOM     11  O   UNL     1      -3.896   1.221   0.000  0.00  0.00    +0.000 OA
ATOM     12  O   UNL     1      -3.185   1.641   0.000  0.00  0.00    +0.000 OA
ATOM     13  C   UNL     1      -4.638  -0.016   0.000  0.00  0.00    +0.000 C 
ATOM     14  C   UNL     1      -3.928  -0.436   0.000  0.00  0.00    +0.000 C 
ATOM     15  C   UNL     1      -4.638   0.812   0.000  0.00  0.00    +0.000 C 
ATOM     16  C   UNL     1      -5.381  -0.436   0.000  0.00  0.00    +0.000 C 
ATOM     17  C   UNL     1      -5.338   0.393   0.000  0.00  0.00    +0.000 C 
ENDBRANCH   2   9
BRANCH   3  18
ATOM     18  C   UNL     1      -1.743  -0.016   0.000  0.00  0.00    +0.000 A 
ATOM     19  C   UNL     1      -1.033  -0.436   0.000  0.00  0.00    +0.000 A 
ATOM     20  C   UNL     1      -2.486  -0.436   0.000  0.00  0.00    +0.000 A 
ATOM     21  C   UNL     1      -1.033  -1.264   0.000  0.00  0.00    +0.000 A 
ATOM     22  C   UNL     1      -2.486  -1.264   0.000  0.00  0.00    +0.000 A 
ATOM     23  C   UNL     1      -1.743  -1.673   0.000  0.00  0.00    +0.000 A 
BRANCH  21  26
ATOM     24  O   UNL     1      -0.334  -2.502   0.000  0.00  0.00    +0.000 OA
ATOM     25  O   UNL     1       0.495  -1.178   0.000  0.00  0.00    +0.000 OA
ATOM     26  N   UNL     1      -0.334  -1.673   0.000  0.00  0.00    +0.000 N 
ENDBRANCH  21  26
ENDBRANCH   3  18
BRANCH   4  28
ATOM     27  O   UNL     1      -0.334  -0.016   0.000  0.00  0.00    +0.000 OA
ATOM     28  C   UNL     1      -0.334   0.812   0.000  0.00  0.00    +0.000 C 
BRANCH  28  29
ATOM     29  O   UNL     1       0.377   1.221   0.000  0.00  0.00    +0.000 OA
BRANCH  29  30
ATOM     30  C   UNL     1       1.119   0.812   0.000  0.00  0.00    +0.000 C 
BRANCH  30  31
ATOM     31  C   UNL     1       1.819   1.264   0.000  0.00  0.00    +0.000 C 
BRANCH  31  32
ATOM     32  N   UNL     1       2.529   0.855   0.000  0.00  0.00    +0.000 N 
BRANCH  32  33
ATOM     33  C   UNL     1       2.529   0.027   0.000  0.00  0.00    +0.000 A 
ATOM     34  C   UNL     1       3.228  -0.393   0.000  0.00  0.00    +0.000 A 
ATOM     35  C   UNL     1       1.819  -0.393   0.000  0.00  0.00    +0.000 A 
ATOM     36  C   UNL     1       3.228  -1.221   0.000  0.00  0.00    +0.000 A 
ATOM     37  C   UNL     1       1.819  -1.221   0.000  0.00  0.00    +0.000 A 
ATOM     38  C   UNL     1       2.529  -1.630   0.000  0.00  0.00    +0.000 A 
ENDBRANCH  32  33
BRANCH  32  39
ATOM     39  C   UNL     1       3.272   1.221   0.000  0.00  0.00    +0.000 C 
BRANCH  39  40
ATOM     40  C   UNL     1       3.971   0.855   0.000  0.00  0.00    +0.000 A 
ATOM     41  C   UNL     1       4.681   1.221   0.000  0.00  0.00    +0.000 A 
ATOM     42  C   UNL     1       3.971   0.027   0.000  0.00  0.00    +0.000 A 
ATOM     43  C   UNL     1       5.381   0.812   0.000  0.00  0.00    +0.000 A 
ATOM     44  C   UNL     1       4.681  -0.393   0.000  0.00  0.00    +0.000 A 
ATOM     45  C   UNL     1       5.381   0.027   0.000  0.00  0.00    +0.000 A 
ENDBRANCH  39  40
ENDBRANCH  32  39
ENDBRANCH  31  32
ENDBRANCH  30  31
ENDBRANCH  29  30
ENDBRANCH  28  29
ENDBRANCH   4  28
TORSDOF 11
