REMARK  Name = 
REMARK  6 active torsions:
REMARK  status: ('A' for Active; 'I' for Inactive)
REMARK    1  A    between atoms: C_7  and  C_9
REMARK    2  A    between atoms: C_9  and  N_10
REMARK    3  A    between atoms: C_12  and  N_17
REMARK    4  A    between atoms: N_17  and  S_18
REMARK    5  A    between atoms: S_18  and  C_21
REMARK    6  A    between atoms: C_22  and  C_23
REMARK                            x       y       z     vdW  Elec       q    Type
REMARK                         _______ _______ _______ _____ _____    ______ ____
ROOT
ATOM      1  N   UNL     1      -1.051  -0.027   0.000  0.00  0.00    +0.000 N 
ATOM      2  C   UNL     1      -0.797  -0.812   0.000  0.00  0.00    +0.000 C 
ATOM      3  C   UNL     1       0.026  -0.807   0.000  0.00  0.00    +0.000 C 
ATOM      4  C   UNL     1       0.276  -0.023   0.000  0.00  0.00    +0.000 C 
ATOM      5  C   UNL     1      -0.382   0.459   0.000  0.00  0.00    +0.000 C 
ATOM      6  O   UNL     1      -1.283  -1.490   0.000  0.00  0.00    +0.000 OA
ENDROOT
BRANCH   1   7
ATOM      7  C   UNL     1      -1.861   0.145   0.000  0.00  0.00    +0.000 C 
ATOM      8  C   UNL     1      -2.115   0.927   0.000  0.00  0.00    +0.000 C 
BRANCH   7  15
ATOM      9  C   UNL     1      -3.473   0.484   0.000  0.00  0.00    +0.000 C 
ATOM     10  C   UNL     1      -4.283   0.656   0.000  0.00  0.00    +0.000 C 
ATOM     11  O   UNL     1      -4.834   0.042   0.000  0.00  0.00    +0.000 OA
ATOM     12  C   UNL     1      -4.580  -0.743   0.000  0.00  0.00    +0.000 C 
ATOM     13  C   UNL     1      -3.770  -0.915   0.000  0.00  0.00    +0.000 C 
ATOM     14  N   UNL     1      -3.219  -0.301   0.000  0.00  0.00    +0.000 N 
ATOM     15  C   UNL     1      -2.412  -0.469   0.000  0.00  0.00    +0.000 C 
ATOM     16  O   UNL     1      -2.157  -1.250   0.000  0.00  0.00    +0.000 OA
ENDBRANCH   7  15
ENDBRANCH   1   7
BRANCH   3  17
ATOM     17  N   UNL     1       0.516  -1.470   0.000  0.00  0.00    +0.000 NA
BRANCH  17  18
ATOM     18  S   UNL     1       1.336  -1.381   0.000  0.00  0.00    +0.000 S 
ATOM     19  O   UNL     1       1.247  -0.560   0.000  0.00  0.00    +0.000 OA
ATOM     20  O   UNL     1       1.424  -2.206   0.000  0.00  0.00    +0.000 OA
BRANCH  18  21
ATOM     21  C   UNL     1       2.157  -1.293   0.000  0.00  0.00    +0.000 C 
ATOM     22  C   UNL     1       2.491  -0.540   0.000  0.00  0.00    +0.000 C 
BRANCH  22  23
ATOM     23  C   UNL     1       3.311  -0.451   0.000  0.00  0.00    +0.000 A 
ATOM     24  C   UNL     1       3.927  -0.995   0.000  0.00  0.00    +0.000 A 
ATOM     25  C   UNL     1       4.638  -0.570   0.000  0.00  0.00    +0.000 A 
ATOM     26  C   UNL     1       4.461   0.218   0.000  0.00  0.00    +0.000 A 
ATOM     27  S   UNL     1       3.643   0.306   0.000  0.00  0.00    +0.000 S 
ATOM     28 CL   UNL     1       5.021   0.836   0.000  0.00  0.00    +0.000 Cl
ENDBRANCH  22  23
ENDBRANCH  18  21
ENDBRANCH  17  18
ENDBRANCH   3  17
TORSDOF 6
