REMARK  Name = 
REMARK  1 active torsions:
REMARK  status: ('A' for Active; 'I' for Inactive)
REMARK    1  A    between atoms: CA_2  and  C_6
REMARK                            x       y       z     vdW  Elec       q    Type
REMARK                         _______ _______ _______ _____ _____    ______ ____
ROOT
ATOM      1  C   UNL     1      -0.358   0.015   0.000  0.00  0.00    +0.000 C 
ATOM      2  CA  UNL     1      -0.358   0.829   0.000  0.00  0.00    +0.000 C 
ATOM      3  O   UNL     1      -1.074  -0.395   0.000  0.00  0.00    +0.000 OA
ATOM      4  C   UNL     1       0.359  -0.395   0.000  0.00  0.00    +0.000 C 
ATOM      5  N   UNL     1       0.359   1.237   0.000  0.00  0.00    +0.000 NA
ATOM      6  C   UNL     1       1.075   0.015   0.000  0.00  0.00    +0.000 C 
ATOM      7  O   UNL     1       0.359  -1.237   0.000  0.00  0.00    +0.000 OA
ATOM      8  C   UNL     1       1.075   0.829   0.000  0.00  0.00    +0.000 C 
ATOM      9  O   UNL     1       1.793  -0.418   0.000  0.00  0.00    +0.000 OA
ENDROOT
BRANCH   2  10
ATOM     10  C   UNL     1      -1.093   1.220   0.000  0.00  0.00    +0.000 C 
ATOM     11  O   UNL     1      -1.793   0.784   0.000  0.00  0.00    +0.000 OA
ENDBRANCH   2  10
TORSDOF 1
