REMARK  Name = 
REMARK  6 active torsions:
REMARK  status: ('A' for Active; 'I' for Inactive)
REMARK    1  A    between atoms: C_2  and  C_17
REMARK    2  A    between atoms: C_5  and  N_8
REMARK    3  A    between atoms: C_11  and  C_14
REMARK    4  A    between atoms: C_22  and  C_37
REMARK    5  A    between atoms: C_23  and  N_25
REMARK    6  A    between atoms: N_28  and  C_31
REMARK                            x       y       z     vdW  Elec       q    Type
REMARK                         _______ _______ _______ _____ _____    ______ ____
ROOT
ATOM      1  C   UNL     1       1.429  -2.475   0.000  0.00  0.00    +0.000 C 
ATOM      2  O   UNL     1       2.143  -2.888   0.000  0.00  0.00    +0.000 OA
ATOM      3  N   UNL     1       0.715  -2.888   0.000  0.00  0.00    +0.000 NA
ATOM      4  C   UNL     1       0.715  -3.712   0.000  0.00  0.00    +0.000 A 
ATOM      5  N   UNL     1       1.382  -4.197   0.000  0.00  0.00    +0.000 NA
ATOM      6  C   UNL     1       1.127  -4.982   0.000  0.00  0.00    +0.000 A 
ATOM      7  C   UNL     1       0.302  -4.982   0.000  0.00  0.00    +0.000 A 
ATOM      8  S   UNL     1       0.047  -4.197   0.000  0.00  0.00    +0.000 S 
ENDROOT
BRANCH   1  10
ATOM      9  C   UNL     1       2.143  -1.238   0.000  0.00  0.00    +0.000 A 
ATOM     10  C   UNL     1       1.429  -1.650   0.000  0.00  0.00    +0.000 A 
ATOM     11  C   UNL     1       0.715  -1.238   0.000  0.00  0.00    +0.000 A 
ATOM     12  N   UNL     1       0.715  -0.412   0.000  0.00  0.00    +0.000 NA
ATOM     13  C   UNL     1       1.429   0.000   0.000  0.00  0.00    +0.000 A 
ATOM     14  C   UNL     1       2.143  -0.412   0.000  0.00  0.00    +0.000 A 
ATOM     15 CL   UNL     1       2.858   0.000   0.000  0.00  0.00    +0.000 Cl
BRANCH  13  16
ATOM     16  N   UNL     1       1.429   0.825   0.000  0.00  0.00    +0.000 N 
ATOM     17  C   UNL     1       0.715   1.238   0.000  0.00  0.00    +0.000 C 
ATOM     18  C   UNL     1       0.715   2.062   0.000  0.00  0.00    +0.000 C 
ATOM     19  C   UNL     1       1.429   2.475   0.000  0.00  0.00    +0.000 C 
ATOM     20  C   UNL     1       2.143   2.062   0.000  0.00  0.00    +0.000 C 
ATOM     21  C   UNL     1       2.143   1.238   0.000  0.00  0.00    +0.000 C 
BRANCH  19  22
ATOM     22  C   UNL     1       1.429   3.300   0.000  0.00  0.00    +0.000 C 
ATOM     23  O   UNL     1       2.143   3.712   0.000  0.00  0.00    +0.000 OA
ATOM     24  O   UNL     1       0.715   3.712   0.000  0.00  0.00    +0.000 OA
ENDBRANCH  19  22
ENDBRANCH  13  16
ENDBRANCH   1  10
BRANCH   7  25
ATOM     25  N   UNL     1      -0.183  -5.649   0.000  0.00  0.00    +0.000 N 
ATOM     26  C   UNL     1       0.153  -6.403   0.000  0.00  0.00    +0.000 C 
ATOM     27  C   UNL     1      -0.332  -7.071   0.000  0.00  0.00    +0.000 C 
ATOM     28  N   UNL     1      -1.153  -6.984   0.000  0.00  0.00    +0.000 NA
ATOM     29  C   UNL     1      -1.488  -6.231   0.000  0.00  0.00    +0.000 C 
ATOM     30  C   UNL     1      -1.003  -5.563   0.000  0.00  0.00    +0.000 C 
BRANCH  28  31
ATOM     31  C   UNL     1      -1.638  -7.652   0.000  0.00  0.00    +0.000 C 
ATOM     32  C   UNL     1      -1.302  -8.405   0.000  0.00  0.00    +0.000 C 
ATOM     33  C   UNL     1      -1.787  -9.073   0.000  0.00  0.00    +0.000 C 
ATOM     34  C   UNL     1      -2.608  -8.987   0.000  0.00  0.00    +0.000 C 
ATOM     35  C   UNL     1      -2.943  -8.233   0.000  0.00  0.00    +0.000 C 
ATOM     36  C   UNL     1      -2.458  -7.566   0.000  0.00  0.00    +0.000 C 
ENDBRANCH  28  31
ENDBRANCH   7  25
BRANCH   6  37
ATOM     37  C   UNL     1       1.612  -5.649   0.000  0.00  0.00    +0.000 A 
ATOM     38  C   UNL     1       2.437  -5.649   0.000  0.00  0.00    +0.000 A 
ATOM     39  C   UNL     1       2.692  -6.434   0.000  0.00  0.00    +0.000 A 
ATOM     40  C   UNL     1       2.024  -6.919   0.000  0.00  0.00    +0.000 A 
ATOM     41  S   UNL     1       1.357  -6.434   0.000  0.00  0.00    +0.000 S 
ATOM     42 CL   UNL     1       3.477  -6.689   0.000  0.00  0.00    +0.000 Cl
ENDBRANCH   6  37
TORSDOF 6
