REMARK  Name = 
REMARK  3 active torsions:
REMARK  status: ('A' for Active; 'I' for Inactive)
REMARK    1  A    between atoms: C_5  and  C_11
REMARK    2  A    between atoms: C_11  and  C_12
REMARK    3  A    between atoms: C_11  and  N_19
REMARK                            x       y       z     vdW  Elec       q    Type
REMARK                         _______ _______ _______ _____ _____    ______ ____
ROOT
ATOM      1  C   UNL     1       4.067   0.127   0.000  0.00  0.00    +0.000 C 
ENDROOT
BRANCH   1   6
ATOM      2  C   UNL     1       0.884   0.754   0.000  0.00  0.00    +0.000 C 
ATOM      3  N   UNL     1       1.139  -0.030   0.000  0.00  0.00    +0.000 N 
ATOM      4  C   UNL     1       1.923  -0.285   0.000  0.00  0.00    +0.000 A 
ATOM      5  C   UNL     1       2.638   0.127   0.000  0.00  0.00    +0.000 A 
ATOM      6  C   UNL     1       3.352  -0.285   0.000  0.00  0.00    +0.000 A 
ATOM      7  C   UNL     1       3.352  -1.110   0.000  0.00  0.00    +0.000 A 
ATOM      8  C   UNL     1       2.638  -1.523   0.000  0.00  0.00    +0.000 A 
ATOM      9  C   UNL     1       1.923  -1.110   0.000  0.00  0.00    +0.000 A 
ATOM     10  N   UNL     1       1.139  -1.365   0.000  0.00  0.00    +0.000 NA
ATOM     11  N   UNL     1       0.654  -0.698   0.000  0.00  0.00    +0.000 NA
ENDBRANCH   1   6
BRANCH   1  12
ATOM     12  C   UNL     1       4.781  -0.285   0.000  0.00  0.00    +0.000 A 
ATOM     13  C   UNL     1       5.496   0.127   0.000  0.00  0.00    +0.000 A 
ATOM     14  C   UNL     1       6.210  -0.285   0.000  0.00  0.00    +0.000 A 
ATOM     15  C   UNL     1       6.210  -1.110   0.000  0.00  0.00    +0.000 A 
ATOM     16  C   UNL     1       5.496  -1.523   0.000  0.00  0.00    +0.000 A 
ATOM     17  C   UNL     1       4.781  -1.110   0.000  0.00  0.00    +0.000 A 
ATOM     18 CL   UNL     1       6.925  -1.523   0.000  0.00  0.00    +0.000 Cl
ENDBRANCH   1  12
BRANCH   1  19
ATOM     19  N   UNL     1       4.067   0.952   0.000  0.00  0.00    +0.000 N 
ATOM     20  C   UNL     1       3.399   1.437   0.000  0.00  0.00    +0.000 A 
ATOM     21  N   UNL     1       3.654   2.222   0.000  0.00  0.00    +0.000 NA
ATOM     22  C   UNL     1       4.479   2.222   0.000  0.00  0.00    +0.000 A 
ATOM     23  N   UNL     1       4.734   1.437   0.000  0.00  0.00    +0.000 NA
ENDBRANCH   1  19
TORSDOF 3
