REMARK  Name = 
REMARK  4 active torsions:
REMARK  status: ('A' for Active; 'I' for Inactive)
REMARK    1  A    between atoms: N_3  and  C_7
REMARK    2  A    between atoms: C_9  and  C_15
REMARK    3  A    between atoms: P_13  and  O_14
REMARK    4  A    between atoms: O_14  and  C_15
REMARK                            x       y       z     vdW  Elec       q    Type
REMARK                         _______ _______ _______ _____ _____    ______ ____
ROOT
ATOM      1  C   UNL     1       0.829  -0.170   0.000  0.00  0.00    +0.000 C 
ATOM      2  O   UNL     1       0.162  -0.654   0.000  0.00  0.00    +0.000 OA
ATOM      3  C   UNL     1       0.417  -1.439   0.000  0.00  0.00    +0.000 C 
ATOM      4  C   UNL     1       1.242  -1.439   0.000  0.00  0.00    +0.000 C 
ATOM      5  C   UNL     1       1.497  -0.654   0.000  0.00  0.00    +0.000 C 
ATOM      6  O   UNL     1       2.294  -0.441   0.000  0.00  0.00    +0.000 OA
ATOM      7  O   UNL     1       1.727  -2.106   0.000  0.00  0.00    +0.000 OA
ENDROOT
BRANCH   1  10
ATOM      8  C   UNL     1       0.115   1.068   0.000  0.00  0.00    +0.000 A 
ATOM      9  C   UNL     1       0.115   1.893   0.000  0.00  0.00    +0.000 A 
ATOM     10  N   UNL     1       0.829   0.655   0.000  0.00  0.00    +0.000 N 
ATOM     11  C   UNL     1       1.544   1.068   0.000  0.00  0.00    +0.000 A 
ATOM     12  N   UNL     1       1.544   1.893   0.000  0.00  0.00    +0.000 NA
ATOM     13  C   UNL     1       0.829   2.305   0.000  0.00  0.00    +0.000 A 
ATOM     14  O   UNL     1       2.258   0.655   0.000  0.00  0.00    +0.000 OA
ATOM     15  N   UNL     1       0.829   3.130   0.000  0.00  0.00    +0.000 NA
ATOM     16  C   UNL     1      -0.600   2.305   0.000  0.00  0.00    +0.000 C 
ENDBRANCH   1  10
BRANCH   3  17
ATOM     17  C   UNL     1      -0.068  -2.106   0.000  0.00  0.00    +0.000 C 
BRANCH  17  18
ATOM     18  O   UNL     1      -0.865  -1.893   0.000  0.00  0.00    +0.000 OA
BRANCH  18  20
ATOM     19  O   UNL     1      -1.579  -3.130   0.000  0.00  0.00    +0.000 OA
ATOM     20  P   UNL     1      -1.579  -2.305   0.000  0.00  0.00    +0.000 P 
ATOM     21  O   UNL     1      -2.294  -1.893   0.000  0.00  0.00    +0.000 OA
ATOM     22  O   UNL     1      -1.579  -1.480   0.000  0.00  0.00    +0.000 OA
ENDBRANCH  18  20
ENDBRANCH  17  18
ENDBRANCH   3  17
TORSDOF 4
