REMARK  Name = 
REMARK  2 active torsions:
REMARK  status: ('A' for Active; 'I' for Inactive)
REMARK    1  A    between atoms: C_6  and  C_7
REMARK    2  A    between atoms: C_7  and  C_10
REMARK                            x       y       z     vdW  Elec       q    Type
REMARK                         _______ _______ _______ _____ _____    ______ ____
ROOT
ATOM      1  O   UNL     1       0.715   0.825   0.000  0.00  0.00    +0.000 OA
ATOM      2  C   UNL     1       0.000   0.412   0.000  0.00  0.00    +0.000 A 
ATOM      3  C   UNL     1      -0.715  -0.825   0.000  0.00  0.00    +0.000 A 
ATOM      4  C   UNL     1      -1.429   0.412   0.000  0.00  0.00    +0.000 A 
ATOM      5  C   UNL     1      -0.715   0.825   0.000  0.00  0.00    +0.000 A 
ATOM      6  C   UNL     1       0.000  -0.412   0.000  0.00  0.00    +0.000 A 
ATOM      7  C   UNL     1      -1.429  -0.412   0.000  0.00  0.00    +0.000 A 
ATOM      8  O   UNL     1      -2.143  -0.825   0.000  0.00  0.00    +0.000 OA
ENDROOT
BRANCH   6   9
ATOM      9  C   UNL     1       0.715  -0.825   0.000  0.00  0.00    +0.000 C 
BRANCH   9  11
ATOM     10  O   UNL     1       1.429   0.412   0.000  0.00  0.00    +0.000 OA
ATOM     11  C   UNL     1       1.429  -0.412   0.000  0.00  0.00    +0.000 C 
ATOM     12  O   UNL     1       2.143  -0.825   0.000  0.00  0.00    +0.000 OA
ENDBRANCH   9  11
ENDBRANCH   6   9
TORSDOF 2
