REMARK  Name = 
REMARK  7 active torsions:
REMARK  status: ('A' for Active; 'I' for Inactive)
REMARK    1  A    between atoms: C_1  and  C_9
REMARK    2  A    between atoms: C_4  and  O_7
REMARK    3  A    between atoms: C_12  and  S_15
REMARK    4  A    between atoms: S_15  and  N_18
REMARK    5  A    between atoms: N_18  and  C_19
REMARK    6  A    between atoms: C_19  and  C_20
REMARK    7  A    between atoms: C_19  and  P_23
REMARK                            x       y       z     vdW  Elec       q    Type
REMARK                         _______ _______ _______ _____ _____    ______ ____
ROOT
ATOM      1  C   UNL     1       0.659  -0.825   0.000  0.00  0.00    +0.000 A 
ATOM      2  C   UNL     1      -0.055  -0.412   0.000  0.00  0.00    +0.000 A 
ATOM      3  C   UNL     1      -0.055   0.412   0.000  0.00  0.00    +0.000 A 
ATOM      4  C   UNL     1       0.659   0.825   0.000  0.00  0.00    +0.000 A 
ATOM      5  C   UNL     1       1.374   0.412   0.000  0.00  0.00    +0.000 A 
ATOM      6  C   UNL     1       1.374  -0.412   0.000  0.00  0.00    +0.000 A 
ENDROOT
BRANCH   1   7
ATOM      7  C   UNL     1       0.659  -1.650   0.000  0.00  0.00    +0.000 A 
ATOM      8  C   UNL     1       1.374  -2.062   0.000  0.00  0.00    +0.000 A 
ATOM      9  C   UNL     1       1.374  -2.887   0.000  0.00  0.00    +0.000 A 
ATOM     10  C   UNL     1       0.659  -3.300   0.000  0.00  0.00    +0.000 A 
ATOM     11  C   UNL     1      -0.055  -2.887   0.000  0.00  0.00    +0.000 A 
ATOM     12  C   UNL     1      -0.055  -2.062   0.000  0.00  0.00    +0.000 A 
BRANCH  10  13
ATOM     13  O   UNL     1       0.659  -4.125   0.000  0.00  0.00    +0.000 OA
ATOM     14  C   UNL     1       1.374  -4.537   0.000  0.00  0.00    +0.000 C 
ENDBRANCH  10  13
ENDBRANCH   1   7
BRANCH   4  15
ATOM     15  S   UNL     1       0.659   1.650   0.000  0.00  0.00    +0.000 S 
ATOM     16  O   UNL     1       1.484   1.650   0.000  0.00  0.00    +0.000 OA
ATOM     17  O   UNL     1      -0.166   1.650   0.000  0.00  0.00    +0.000 OA
BRANCH  15  18
ATOM     18  N   UNL     1       0.659   2.475   0.000  0.00  0.00    +0.000 NA
BRANCH  18  19
ATOM     19  C   UNL     1      -0.055   2.888   0.000  0.00  0.00    +0.000 C 
BRANCH  19  20
ATOM     20  P   UNL     1      -0.055   3.712   0.000  0.00  0.00    +0.000 P 
ATOM     21  O   UNL     1      -0.880   3.712   0.000  0.00  0.00    +0.000 OA
ATOM     22  O   UNL     1      -0.055   4.537   0.000  0.00  0.00    +0.000 OA
ATOM     23  O   UNL     1       0.770   3.712   0.000  0.00  0.00    +0.000 OA
ENDBRANCH  19  20
BRANCH  19  24
ATOM     24  C   UNL     1      -0.770   2.475   0.000  0.00  0.00    +0.000 C 
ATOM     25  C   UNL     1      -0.770   1.650   0.000  0.00  0.00    +0.000 C 
ATOM     26  C   UNL     1      -1.484   2.888   0.000  0.00  0.00    +0.000 C 
ENDBRANCH  19  24
ENDBRANCH  18  19
ENDBRANCH  15  18
ENDBRANCH   4  15
TORSDOF 7
