REMARK  Name = 
REMARK  4 active torsions:
REMARK  status: ('A' for Active; 'I' for Inactive)
REMARK    1  A    between atoms: N_2  and  N_3
REMARK    2  A    between atoms: N_3  and  C_9
REMARK    3  A    between atoms: C_4  and  C_8
REMARK    4  A    between atoms: C_9  and  C_10
REMARK                            x       y       z     vdW  Elec       q    Type
REMARK                         _______ _______ _______ _____ _____    ______ ____
ROOT
ATOM      1  N   UNL     1      -0.055   0.000   0.000  0.00  0.00    +0.000 NA
ATOM      2  H   UNL     1       0.388  -0.256   0.000  0.00  0.00    +0.000 HD
ENDROOT
BRANCH   1   4
ATOM      3  O   UNL     1       1.374   0.825   0.000  0.00  0.00    +0.000 OA
ATOM      4  N   UNL     1      -0.055   0.825   0.000  0.00  0.00    +0.000 N 
ATOM      5  C   UNL     1       0.659   1.238   0.000  0.00  0.00    +0.000 C 
ATOM      6  H   UNL     1      -0.498   1.081   0.000  0.00  0.00    +0.000 HD
BRANCH   5   7
ATOM      7  C   UNL     1       0.659   2.062   0.000  0.00  0.00    +0.000 C 
ATOM      8  C   UNL     1      -0.166   2.062   0.000  0.00  0.00    +0.000 C 
ATOM      9  C   UNL     1       1.484   2.062   0.000  0.00  0.00    +0.000 C 
ATOM     10  C   UNL     1       0.659   2.888   0.000  0.00  0.00    +0.000 C 
ENDBRANCH   5   7
ENDBRANCH   1   4
BRANCH   1  11
ATOM     11  C   UNL     1      -0.770  -0.412   0.000  0.00  0.00    +0.000 C 
BRANCH  11  12
ATOM     12  C   UNL     1      -0.770  -1.238   0.000  0.00  0.00    +0.000 A 
ATOM     13  C   UNL     1      -0.055  -1.650   0.000  0.00  0.00    +0.000 A 
ATOM     14  C   UNL     1      -1.484  -1.650   0.000  0.00  0.00    +0.000 A 
ATOM     15  C   UNL     1      -0.055  -2.475   0.000  0.00  0.00    +0.000 A 
ATOM     16  C   UNL     1      -1.484  -2.475   0.000  0.00  0.00    +0.000 A 
ATOM     17  C   UNL     1      -0.770  -2.888   0.000  0.00  0.00    +0.000 A 
ENDBRANCH  11  12
ENDBRANCH   1  11
TORSDOF 4
