REMARK  Name = 
REMARK  5 active torsions:
REMARK  status: ('A' for Active; 'I' for Inactive)
REMARK    1  A    between atoms: C_17  and  O_22
REMARK    2  A    between atoms: O_22  and  C_24
REMARK    3  A    between atoms: C_24  and  C_25
REMARK    4  A    between atoms: C_25  and  C_27
REMARK    5  A    between atoms: C_27  and  C_28
REMARK                            x       y       z     vdW  Elec       q    Type
REMARK                         _______ _______ _______ _____ _____    ______ ____
ROOT
ATOM      1  C   UNL     1      -3.698  -1.018   0.000  0.00  0.00    +0.000 A 
ATOM      2  C   UNL     1      -3.699  -1.843   0.000  0.00  0.00    +0.000 A 
ATOM      3  C   UNL     1      -2.986  -2.255   0.000  0.00  0.00    +0.000 A 
ATOM      4  C   UNL     1      -2.988  -0.606   0.000  0.00  0.00    +0.000 A 
ATOM      5  C   UNL     1      -2.275  -1.014   0.000  0.00  0.00    +0.000 A 
ATOM      6  C   UNL     1      -2.271  -1.841   0.000  0.00  0.00    +0.000 A 
ATOM      7  C   UNL     1      -1.558  -2.248   0.000  0.00  0.00    +0.000 C 
ATOM      8  C   UNL     1      -0.843  -1.835   0.000  0.00  0.00    +0.000 C 
ATOM      9  C   UNL     1      -1.565  -0.596   0.000  0.00  0.00    +0.000 C 
ATOM     10  C   UNL     1      -0.847  -1.012   0.000  0.00  0.00    +0.000 C 
ATOM     11  C   UNL     1      -0.845   0.643   0.000  0.00  0.00    +0.000 C 
ATOM     12  C   UNL     1      -1.567   0.231   0.000  0.00  0.00    +0.000 C 
ATOM     13  C   UNL     1      -0.128   0.227   0.000  0.00  0.00    +0.000 C 
ATOM     14  C   UNL     1      -0.135  -0.598   0.000  0.00  0.00    +0.000 C 
ATOM     15  C   UNL     1       0.647  -0.860   0.000  0.00  0.00    +0.000 C 
ATOM     16  C   UNL     1       1.138  -0.197   0.000  0.00  0.00    +0.000 C 
ATOM     17  C   UNL     1       0.659   0.475   0.000  0.00  0.00    +0.000 C 
ATOM     18  C   UNL     1      -0.135   1.052   0.000  0.00  0.00    +0.000 C 
ATOM     19  O   UNL     1      -4.412  -2.254   0.000  0.00  0.00    +0.000 OA
ENDROOT
BRANCH  17  20
ATOM     20  O   UNL     1       0.994   1.412   0.000  0.00  0.00    +0.000 OA
BRANCH  20  21
ATOM     21  C   UNL     1       1.812   1.502   0.000  0.00  0.00    +0.000 C 
ATOM     22  O   UNL     1       2.145   2.255   0.000  0.00  0.00    +0.000 OA
BRANCH  21  23
ATOM     23  C   UNL     1       2.294   0.838   0.000  0.00  0.00    +0.000 C 
BRANCH  23  24
ATOM     24  C   UNL     1       3.112   0.928   0.000  0.00  0.00    +0.000 C 
BRANCH  24  25
ATOM     25  C   UNL     1       3.594   0.263   0.000  0.00  0.00    +0.000 C 
ATOM     26  O   UNL     1       3.255  -0.486   0.000  0.00  0.00    +0.000 OA
ATOM     27  O   UNL     1       4.412   0.354   0.000  0.00  0.00    +0.000 OA
ENDBRANCH  24  25
ENDBRANCH  23  24
ENDBRANCH  21  23
ENDBRANCH  20  21
ENDBRANCH  17  20
TORSDOF 5
