REMARK  Name = 
REMARK  6 active torsions:
REMARK  status: ('A' for Active; 'I' for Inactive)
REMARK    1  A    between atoms: C_2  and  C_3
REMARK    2  A    between atoms: C_3  and  S_4
REMARK    3  A    between atoms: S_4  and  N_7
REMARK    4  A    between atoms: N_7  and  C_8
REMARK    5  A    between atoms: C_10  and  N_12
REMARK    6  A    between atoms: N_12  and  C_14
REMARK                            x       y       z     vdW  Elec       q    Type
REMARK                         _______ _______ _______ _____ _____    ______ ____
ROOT
ATOM      1  C   UNL     1       2.439  -2.233   0.000  0.00  0.00    +0.000 C 
ATOM      2  C   UNL     1       1.643  -2.447   0.000  0.00  0.00    +0.000 C 
ATOM      3  C   UNL     1       1.429  -1.650   0.000  0.00  0.00    +0.000 C 
ATOM      4  C   UNL     1       2.226  -1.437   0.000  0.00  0.00    +0.000 C 
ENDROOT
BRANCH   3   5
ATOM      5  N   UNL     1       0.715  -1.238   0.000  0.00  0.00    +0.000 N 
ATOM      6  C   UNL     1       0.000  -1.650   0.000  0.00  0.00    +0.000 C 
BRANCH   5   7
ATOM      7  C   UNL     1       0.715  -0.412   0.000  0.00  0.00    +0.000 A 
ATOM      8  C   UNL     1       0.000   0.000   0.000  0.00  0.00    +0.000 A 
ATOM      9  C   UNL     1      -0.785  -0.255   0.000  0.00  0.00    +0.000 A 
ATOM     10  C   UNL     1      -1.270   0.412   0.000  0.00  0.00    +0.000 A 
ATOM     11  N   UNL     1      -0.785   1.080   0.000  0.00  0.00    +0.000 NA
ATOM     12  C   UNL     1       0.000   0.825   0.000  0.00  0.00    +0.000 A 
ATOM     13  N   UNL     1       0.715   1.238   0.000  0.00  0.00    +0.000 NA
ATOM     14  C   UNL     1       1.429   0.825   0.000  0.00  0.00    +0.000 A 
ATOM     15  N   UNL     1       1.429   0.000   0.000  0.00  0.00    +0.000 NA
ENDBRANCH   5   7
ENDBRANCH   3   5
BRANCH   1  16
ATOM     16  N   UNL     1       3.154  -2.646   0.000  0.00  0.00    +0.000 NA
BRANCH  16  17
ATOM     17  S   UNL     1       3.868  -2.233   0.000  0.00  0.00    +0.000 S 
ATOM     18  O   UNL     1       3.456  -1.519   0.000  0.00  0.00    +0.000 OA
ATOM     19  O   UNL     1       4.281  -2.948   0.000  0.00  0.00    +0.000 OA
BRANCH  17  20
ATOM     20  C   UNL     1       4.583  -1.821   0.000  0.00  0.00    +0.000 C 
BRANCH  20  22
ATOM     21  C   UNL     1       6.012  -1.821   0.000  0.00  0.00    +0.000 C 
ATOM     22  C   UNL     1       5.297  -2.233   0.000  0.00  0.00    +0.000 C 
ENDBRANCH  20  22
ENDBRANCH  17  20
ENDBRANCH  16  17
ENDBRANCH   1  16
TORSDOF 6
