REMARK  Name = 
REMARK  19 active torsions:
REMARK  status: ('A' for Active; 'I' for Inactive)
REMARK    1  A    between atoms: C_7  and  C_12
REMARK    2  A    between atoms: C_10  and  C_41
REMARK    3  A    between atoms: C_21  and  N_51
REMARK    4  A    between atoms: C_23  and  N_52
REMARK    5  A    between atoms: C_27  and  C_28
REMARK    6  A    between atoms: C_41  and  C_42
REMARK    7  A    between atoms: C_42  and  C_44
REMARK    8  A    between atoms: N_51  and  C_77
REMARK    9  A    between atoms: C_54  and  C_56
REMARK   10  A    between atoms: C_60  and  C_62
REMARK   11  A    between atoms: C_67  and  O_68
REMARK   12  A    between atoms: O_68  and  C_69
REMARK   13  A    between atoms: C_69  and  C_70
REMARK   14  A    between atoms: C_70  and  C_71
REMARK   15  A    between atoms: C_71  and  C_72
REMARK   16  A    between atoms: C_72  and  C_73
REMARK   17  A    between atoms: C_73  and  C_74
REMARK   18  A    between atoms: C_74  and  C_75
REMARK   19  A    between atoms: C_77  and  C_78
REMARK                            x       y       z     vdW  Elec       q    Type
REMARK                         _______ _______ _______ _____ _____    ______ ____
ROOT
ATOM      1  C   UNK A   1      -5.590   3.086   0.000  0.00  0.00    +0.000 C 
ATOM      2  C   UNK A   1      -6.257   2.601   0.000  0.00  0.00    +0.000 C 
ATOM      3  C   UNK A   1      -6.002   1.817   0.000  0.00  0.00    +0.000 C 
ATOM      4  N   UNK A   1      -5.177   1.817   0.000  0.00  0.00    +0.000 N 
ATOM      5  C   UNK A   1      -4.923   2.601   0.000  0.00  0.00    +0.000 C 
ATOM      6  C   UNK A   1      -4.765   1.102   0.000  0.00  0.00    +0.000 C 
ATOM      7  C   UNK A   1      -5.177   0.388   0.000  0.00  0.00    +0.000 C 
ATOM      8  N   UNK A   1      -4.765  -0.327   0.000  0.00  0.00    +0.000 NA
ATOM      9  C   UNK A   3      -5.177  -1.041   0.000  0.00  0.00    +0.000 C 
ATOM     10  C   UNK A   3      -4.765  -1.756   0.000  0.00  0.00    +0.000 C 
ATOM     11  O   UNK A   1      -3.940   1.102   0.000  0.00  0.00    +0.000 OA
ATOM     12  O   UNK A   3      -6.002  -1.041   0.000  0.00  0.00    +0.000 OA
ATOM     13  C   UNK A   1      -7.054   2.815   0.000  0.00  0.00    +0.000 C 
ATOM     14  O   UNK A   1      -5.590   3.911   0.000  0.00  0.00    +0.000 OA
ATOM     15  C   UNK A   1      -4.339   3.184   0.000  0.00  0.00    +0.000 C 
ATOM     16  N   UNK A   1      -3.514   3.184   0.000  0.00  0.00    +0.000 NA
ATOM     17  O   UNK A   1      -4.575   3.929   0.000  0.00  0.00    +0.000 OA
ATOM     18  C   UNK A   1      -3.102   3.899   0.000  0.00  0.00    +0.000 C 
ATOM     19  C   UNK A   1      -2.277   3.899   0.000  0.00  0.00    +0.000 C 
ATOM     20  C   UNK A   1      -1.864   3.184   0.000  0.00  0.00    +0.000 C 
ATOM     21  C   UNK A   1      -2.277   2.470   0.000  0.00  0.00    +0.000 C 
ATOM     22  C   UNK A   1      -1.864   1.756   0.000  0.00  0.00    +0.000 C 
ATOM     23  O   UNK A   1      -1.039   1.756   0.000  0.00  0.00    +0.000 OA
ATOM     24  N   UNK A   1      -2.277   1.041   0.000  0.00  0.00    +0.000 NA
ATOM     25  C   UNK A   1      -1.864   0.327   0.000  0.00  0.00    +0.000 C 
ATOM     26  C   UNK A   1      -2.277  -0.388   0.000  0.00  0.00    +0.000 C 
ATOM     27  CD  HYP A   2      -1.039  -1.102   0.000  0.00  0.00    +0.000 C 
ATOM     28  N   HYP A   2      -1.864  -1.102   0.000  0.00  0.00    +0.000 N 
ATOM     29  CA  HYP A   2      -2.119  -1.887   0.000  0.00  0.00    +0.000 C 
ATOM     30  CB  HYP A   2      -1.452  -2.372   0.000  0.00  0.00    +0.000 C 
ATOM     31  CG  HYP A   2      -0.784  -1.887   0.000  0.00  0.00    +0.000 C 
ATOM     32  O   UNK A   1      -3.102  -0.388   0.000  0.00  0.00    +0.000 OA
ATOM     33  N   UNK A   3      -3.616  -1.726   0.000  0.00  0.00    +0.000 NA
ATOM     34  C   HYP A   2      -2.833  -2.211   0.000  0.00  0.00    +0.000 C 
ATOM     35  O   HYP A   2      -2.833  -3.036   0.000  0.00  0.00    +0.000 OA
ATOM     36  OD  HYP A   2       0.013  -2.100   0.000  0.00  0.00    +0.000 OA
ENDROOT
BRANCH  25  37
ATOM     37  C   UNK A   1      -1.039   0.327   0.000  0.00  0.00    +0.000 C 
ATOM     38  C   UNK A   1      -0.627  -0.388   0.000  0.00  0.00    +0.000 C 
ATOM     39  O   UNK A   1      -0.627   1.041   0.000  0.00  0.00    +0.000 OA
ENDBRANCH  25  37
BRANCH  21  40
ATOM     40  N   UNK A   1      -0.921   2.470   0.000  0.00  0.00    +0.000 NA
ATOM     41  C   UNK A   0      -0.207   2.883   0.000  0.00  0.00    +0.000 C 
ATOM     42  O   UNK A   0      -0.207   3.708   0.000  0.00  0.00    +0.000 OA
BRANCH  41  43
ATOM     43  C   UNK A   0       0.508   2.470   0.000  0.00  0.00    +0.000 A 
ATOM     44  C   UNK A   0       1.222   2.883   0.000  0.00  0.00    +0.000 A 
ATOM     45  C   UNK A   0       0.508   1.645   0.000  0.00  0.00    +0.000 A 
ATOM     46  C   UNK A   0       1.222   1.232   0.000  0.00  0.00    +0.000 A 
ATOM     47  C   UNK A   0       1.937   1.645   0.000  0.00  0.00    +0.000 A 
ATOM     48  C   UNK A   0       1.937   2.470   0.000  0.00  0.00    +0.000 A 
BRANCH  47  49
ATOM     49  C   UNK A   0       2.651   1.232   0.000  0.00  0.00    +0.000 A 
ATOM     50  C   UNK A   0       3.365   1.645   0.000  0.00  0.00    +0.000 A 
ATOM     51  C   UNK A   0       2.651   0.407   0.000  0.00  0.00    +0.000 A 
ATOM     52  C   UNK A   0       4.080   1.232   0.000  0.00  0.00    +0.000 A 
ATOM     53  C   UNK A   0       3.365  -0.005   0.000  0.00  0.00    +0.000 A 
ATOM     54  C   UNK A   0       4.080   0.407   0.000  0.00  0.00    +0.000 A 
BRANCH  54  55
ATOM     55  O   UNK A   0       4.795  -0.005   0.000  0.00  0.00    +0.000 OA
BRANCH  55  56
ATOM     56  C   UNK A   0       4.795  -0.830   0.000  0.00  0.00    +0.000 C 
BRANCH  56  57
ATOM     57  C   UNK A   0       5.509  -1.242   0.000  0.00  0.00    +0.000 C 
BRANCH  57  58
ATOM     58  C   UNK A   0       5.509  -2.067   0.000  0.00  0.00    +0.000 C 
BRANCH  58  59
ATOM     59  C   UNK A   0       6.223  -2.480   0.000  0.00  0.00    +0.000 C 
BRANCH  59  60
ATOM     60  C   UNK A   0       6.223  -3.305   0.000  0.00  0.00    +0.000 C 
BRANCH  60  61
ATOM     61  C   UNK A   0       6.938  -3.717   0.000  0.00  0.00    +0.000 C 
BRANCH  61  62
ATOM     62  C   UNK A   0       6.938  -4.542   0.000  0.00  0.00    +0.000 C 
ATOM     63  C   UNK A   0       7.652  -4.955   0.000  0.00  0.00    +0.000 C 
ENDBRANCH  61  62
ENDBRANCH  60  61
ENDBRANCH  59  60
ENDBRANCH  58  59
ENDBRANCH  57  58
ENDBRANCH  56  57
ENDBRANCH  55  56
ENDBRANCH  54  55
ENDBRANCH  47  49
ENDBRANCH  41  43
ENDBRANCH  21  40
BRANCH  10  64
ATOM     64  C   UNK A   3      -5.177  -2.470   0.000  0.00  0.00    +0.000 C 
ATOM     65  O   UNK A   3      -4.765  -3.185   0.000  0.00  0.00    +0.000 OA
BRANCH  64  66
ATOM     66  C   UNK A   3      -6.002  -2.470   0.000  0.00  0.00    +0.000 C 
BRANCH  66  67
ATOM     67  C   UNK A   3      -6.415  -3.185   0.000  0.00  0.00    +0.000 A 
ATOM     68  C   UNK A   3      -7.652  -3.899   0.000  0.00  0.00    +0.000 A 
ATOM     69  C   UNK A   3      -7.240  -4.614   0.000  0.00  0.00    +0.000 A 
ATOM     70  C   UNK A   3      -6.415  -4.614   0.000  0.00  0.00    +0.000 A 
ATOM     71  C   UNK A   3      -6.002  -3.899   0.000  0.00  0.00    +0.000 A 
ATOM     72  C   UNK A   3      -7.240  -3.185   0.000  0.00  0.00    +0.000 A 
ATOM     73  O   UNK A   3      -7.652  -5.328   0.000  0.00  0.00    +0.000 OA
ENDBRANCH  66  67
ENDBRANCH  64  66
ENDBRANCH  10  64
BRANCH   7  74
ATOM     74  C   UNK A   1      -6.002   0.388   0.000  0.00  0.00    +0.000 C 
ATOM     75  O   UNK A   1      -6.415  -0.327   0.000  0.00  0.00    +0.000 OA
ENDBRANCH   7  74
BRANCH  19  76
ATOM     76  N   UNK A   1      -1.864   4.614   0.000  0.00  0.00    +0.000 NA
BRANCH  76  77
ATOM     77  C   UNK A   1      -1.039   4.614   0.000  0.00  0.00    +0.000 C 
BRANCH  77  78
ATOM     78  C   UNK A   1      -0.627   5.328   0.000  0.00  0.00    +0.000 C 
ATOM     79  N   UNK A   1       0.198   5.328   0.000  0.00  0.00    +0.000 NA
ENDBRANCH  77  78
ENDBRANCH  76  77
ENDBRANCH  19  76
TORSDOF 19
