REMARK  Name = 
REMARK  10 active torsions:
REMARK  status: ('A' for Active; 'I' for Inactive)
REMARK    1  A    between atoms: C_4  and  N_7
REMARK    2  A    between atoms: N_7  and  C_8
REMARK    3  A    between atoms: C_17  and  C_20
REMARK    4  A    between atoms: N_22  and  C_23
REMARK    5  A    between atoms: C_23  and  C_24
REMARK    6  A    between atoms: C_24  and  C_25
REMARK    7  A    between atoms: C_25  and  C_26
REMARK    8  A    between atoms: C_26  and  C_27
REMARK    9  A    between atoms: C_27  and  C_28
REMARK   10  A    between atoms: C_28  and  C_29
REMARK                            x       y       z     vdW  Elec       q    Type
REMARK                         _______ _______ _______ _____ _____    ______ ____
ROOT
ATOM      1  N   UNL     1      -2.143   1.238   0.000  0.00  0.00    +0.000 N 
ATOM      2  C   UNL     1      -1.429   1.650   0.000  0.00  0.00    +0.000 A 
ATOM      3  N   UNL     1      -1.429   2.475   0.000  0.00  0.00    +0.000 NA
ATOM      4  C   UNL     1      -0.715   2.888   0.000  0.00  0.00    +0.000 A 
ATOM      5  C   UNL     1       0.000   2.475   0.000  0.00  0.00    +0.000 A 
ATOM      6  C   UNL     1       0.000   1.650   0.000  0.00  0.00    +0.000 A 
ATOM      7  N   UNL     1      -0.715   1.238   0.000  0.00  0.00    +0.000 NA
ENDROOT
BRANCH   1  11
ATOM      8  C   UNL     1      -2.143  -1.238   0.000  0.00  0.00    +0.000 A 
ATOM      9  C   UNL     1      -2.858  -0.825   0.000  0.00  0.00    +0.000 A 
ATOM     10  C   UNL     1      -2.858   0.000   0.000  0.00  0.00    +0.000 A 
ATOM     11  C   UNL     1      -2.143   0.412   0.000  0.00  0.00    +0.000 A 
ATOM     12  C   UNL     1      -1.429   0.000   0.000  0.00  0.00    +0.000 A 
ATOM     13  C   UNL     1      -1.429  -0.825   0.000  0.00  0.00    +0.000 A 
ENDBRANCH   1  11
BRANCH   1  14
ATOM     14  C   UNL     1      -2.858   1.650   0.000  0.00  0.00    +0.000 A 
ATOM     15  C   UNL     1      -3.572   1.238   0.000  0.00  0.00    +0.000 A 
ATOM     16  C   UNL     1      -4.287   1.650   0.000  0.00  0.00    +0.000 A 
ATOM     17  C   UNL     1      -4.287   2.475   0.000  0.00  0.00    +0.000 A 
ATOM     18  C   UNL     1      -3.572   2.888   0.000  0.00  0.00    +0.000 A 
ATOM     19  C   UNL     1      -2.858   2.475   0.000  0.00  0.00    +0.000 A 
ENDBRANCH   1  14
BRANCH   5  20
ATOM     20  C   UNL     1       0.715   2.888   0.000  0.00  0.00    +0.000 C 
ATOM     21  O   UNL     1       0.715   3.712   0.000  0.00  0.00    +0.000 OA
ATOM     22  N   UNL     1       1.429   2.475   0.000  0.00  0.00    +0.000 NA
BRANCH  22  23
ATOM     23  C   UNL     1       2.143   2.888   0.000  0.00  0.00    +0.000 C 
BRANCH  23  24
ATOM     24  C   UNL     1       2.858   2.475   0.000  0.00  0.00    +0.000 C 
BRANCH  24  25
ATOM     25  C   UNL     1       3.572   2.888   0.000  0.00  0.00    +0.000 C 
BRANCH  25  26
ATOM     26  C   UNL     1       4.287   2.475   0.000  0.00  0.00    +0.000 C 
BRANCH  26  27
ATOM     27  C   UNL     1       5.001   2.888   0.000  0.00  0.00    +0.000 C 
BRANCH  27  28
ATOM     28  C   UNL     1       5.716   2.475   0.000  0.00  0.00    +0.000 C 
BRANCH  28  29
ATOM     29  C   UNL     1       6.430   2.888   0.000  0.00  0.00    +0.000 C 
ATOM     30  O   UNL     1       6.430   3.712   0.000  0.00  0.00    +0.000 OA
ATOM     31  N   UNL     1       7.145   2.475   0.000  0.00  0.00    +0.000 NA
ATOM     32  O   UNL     1       7.859   2.888   0.000  0.00  0.00    +0.000 OA
ENDBRANCH  28  29
ENDBRANCH  27  28
ENDBRANCH  26  27
ENDBRANCH  25  26
ENDBRANCH  24  25
ENDBRANCH  23  24
ENDBRANCH  22  23
ENDBRANCH   5  20
TORSDOF 10
