REMARK  Name = 
REMARK  6 active torsions:
REMARK  status: ('A' for Active; 'I' for Inactive)
REMARK    1  A    between atoms: C_4  and  N_5
REMARK    2  A    between atoms: N_5  and  S_6
REMARK    3  A    between atoms: S_6  and  C_9
REMARK    4  A    between atoms: C_14  and  C_16
REMARK    5  A    between atoms: C_20  and  C_23
REMARK    6  A    between atoms: C_23  and  C_25
REMARK                            x       y       z     vdW  Elec       q    Type
REMARK                         _______ _______ _______ _____ _____    ______ ____
ROOT
ATOM      1  C   UNL     1       3.572  -2.888   0.000  0.00  0.00    +0.000 C 
ATOM      2  C   UNL     1       2.858  -2.475   0.000  0.00  0.00    +0.000 A 
ATOM      3  C   UNL     1       2.143  -2.888   0.000  0.00  0.00    +0.000 A 
ATOM      4  C   UNL     1       1.429  -2.475   0.000  0.00  0.00    +0.000 A 
ATOM      5  C   UNL     1       1.429  -1.650   0.000  0.00  0.00    +0.000 A 
ATOM      6  N   UNL     1       2.143  -1.238   0.000  0.00  0.00    +0.000 NA
ATOM      7  C   UNL     1       2.858  -1.650   0.000  0.00  0.00    +0.000 A 
ENDROOT
BRANCH   5   8
ATOM      8  C   UNL     1       0.715  -1.238   0.000  0.00  0.00    +0.000 C 
ATOM      9  O   UNL     1       0.000  -1.650   0.000  0.00  0.00    +0.000 OA
BRANCH   8  10
ATOM     10  C   UNL     1       0.715  -0.412   0.000  0.00  0.00    +0.000 A 
ATOM     11  C   UNL     1       0.000   0.000   0.000  0.00  0.00    +0.000 A 
ATOM     12  C   UNL     1      -0.785  -0.255   0.000  0.00  0.00    +0.000 A 
ATOM     13  C   UNL     1      -1.270   0.412   0.000  0.00  0.00    +0.000 A 
ATOM     14  N   UNL     1      -0.785   1.080   0.000  0.00  0.00    +0.000 NA
ATOM     15  C   UNL     1       0.000   0.825   0.000  0.00  0.00    +0.000 A 
ATOM     16  N   UNL     1       0.715   1.238   0.000  0.00  0.00    +0.000 NA
ATOM     17  C   UNL     1       1.429   0.825   0.000  0.00  0.00    +0.000 A 
ATOM     18  N   UNL     1       1.429   0.000   0.000  0.00  0.00    +0.000 NA
ENDBRANCH   8  10
ENDBRANCH   5   8
BRANCH   4  19
ATOM     19  N   UNL     1       0.715  -2.888   0.000  0.00  0.00    +0.000 NA
BRANCH  19  20
ATOM     20  S   UNL     1       0.715  -3.712   0.000  0.00  0.00    +0.000 S 
ATOM     21  O   UNL     1       1.540  -3.712   0.000  0.00  0.00    +0.000 OA
ATOM     22  O   UNL     1      -0.111  -3.712   0.000  0.00  0.00    +0.000 OA
BRANCH  20  23
ATOM     23  C   UNL     1       0.715  -4.537   0.000  0.00  0.00    +0.000 A 
ATOM     24  C   UNL     1       1.429  -4.950   0.000  0.00  0.00    +0.000 A 
ATOM     25  C   UNL     1       1.429  -5.775   0.000  0.00  0.00    +0.000 A 
ATOM     26  C   UNL     1       0.715  -6.188   0.000  0.00  0.00    +0.000 A 
ATOM     27 CL   UNL     1       0.715  -7.013   0.000  0.00  0.00    +0.000 Cl
ATOM     28  C   UNL     1       0.000  -5.775   0.000  0.00  0.00    +0.000 A 
ATOM     29  C   UNL     1       0.000  -4.950   0.000  0.00  0.00    +0.000 A 
BRANCH  28  30
ATOM     30  C   UNL     1      -0.715  -6.188   0.000  0.00  0.00    +0.000 C 
ATOM     31  F   UNL     1      -1.429  -6.600   0.000  0.00  0.00    +0.000 F 
ATOM     32  F   UNL     1      -1.127  -5.473   0.000  0.00  0.00    +0.000 F 
ATOM     33  F   UNL     1      -0.302  -6.902   0.000  0.00  0.00    +0.000 F 
ENDBRANCH  28  30
ENDBRANCH  20  23
ENDBRANCH  19  20
ENDBRANCH   4  19
TORSDOF 6
