REMARK  Name = 
REMARK  1 active torsions:
REMARK  status: ('A' for Active; 'I' for Inactive)
REMARK    1  A    between atoms: C_3  and  C_8
REMARK                            x       y       z     vdW  Elec       q    Type
REMARK                         _______ _______ _______ _____ _____    ______ ____
ROOT
ATOM      1  C   UNL     1       0.144   0.160   0.000  0.00  0.00    +0.000 A 
ATOM      2  C   UNL     1       0.123   0.994   0.000  0.00  0.00    +0.000 A 
ATOM      3  C   UNL     1       0.790  -0.330   0.000  0.00  0.00    +0.000 C 
ATOM      4  N   UNL     1       1.608  -0.137   0.000  0.00  0.00    +0.000 NA
ATOM      5  C   UNL     1       1.940   0.625   0.000  0.00  0.00    +0.000 C 
ATOM      6  C   UNL     1      -0.598   1.385   0.000  0.00  0.00    +0.000 A 
ATOM      7  C   UNL     1      -0.559  -0.260   0.000  0.00  0.00    +0.000 A 
ATOM      8  C   UNL     1      -1.284   0.128   0.000  0.00  0.00    +0.000 A 
ATOM      9  C   UNL     1      -1.303   0.953   0.000  0.00  0.00    +0.000 A 
ATOM     10  N   UNL     1       0.759   1.525   0.000  0.00  0.00    +0.000 N 
ATOM     11  C   UNL     1       1.572   1.356   0.000  0.00  0.00    +0.000 A 
ATOM     12  N   UNL     1       1.983   2.076   0.000  0.00  0.00    +0.000 NA
ATOM     13  N   UNL     1       1.425   2.691   0.000  0.00  0.00    +0.000 NA
ATOM     14  C   UNL     1       0.669   2.349   0.000  0.00  0.00    +0.000 A 
ATOM     15 BR   UNL     1      -1.983  -0.302   0.000  0.00  0.00    +0.000 Br
ATOM     16  C   UNL     1      -0.044   2.757   0.000  0.00  0.00    +0.000 C 
ENDROOT
BRANCH   3  17
ATOM     17  C   UNL     1       0.626  -1.139   0.000  0.00  0.00    +0.000 A 
ATOM     18  N   UNL     1       1.251  -1.689   0.000  0.00  0.00    +0.000 NA
ATOM     19  C   UNL     1      -0.143  -1.407   0.000  0.00  0.00    +0.000 A 
ATOM     20  C   UNL     1      -0.319  -2.213   0.000  0.00  0.00    +0.000 A 
ATOM     21  C   UNL     1       1.091  -2.499   0.000  0.00  0.00    +0.000 A 
ATOM     22  C   UNL     1       0.298  -2.757   0.000  0.00  0.00    +0.000 A 
ENDBRANCH   3  17
TORSDOF 1
