REMARK  Name = 
REMARK  11 active torsions:
REMARK  status: ('A' for Active; 'I' for Inactive)
REMARK    1  A    between atoms: N_10  and  C_14
REMARK    2  A    between atoms: N_10  and  C_15
REMARK    3  A    between atoms: N_10  and  C_16
REMARK    4  A    between atoms: N_11  and  C_17
REMARK    5  A    between atoms: N_12  and  C_20
REMARK    6  A    between atoms: N_13  and  C_25
REMARK    7  A    between atoms: C_15  and  C_22
REMARK    8  A    between atoms: C_16  and  C_23
REMARK    9  A    between atoms: C_19  and  C_24
REMARK   10  A    between atoms: C_25  and  C_26
REMARK   11  A    between atoms: C_26  and  C_27
REMARK                            x       y       z     vdW  Elec       q    Type
REMARK                         _______ _______ _______ _____ _____    ______ ____
ROOT
ATOM      1  C   UNL     1       0.000  -1.238   0.000  0.00  0.00    +0.000 A 
ATOM      2  C   UNL     1      -0.714  -1.650   0.000  0.00  0.00    +0.000 A 
ATOM      3  C   UNL     1       0.000  -0.412   0.000  0.00  0.00    +0.000 A 
ATOM      4  C   UNL     1      -0.714   0.000   0.000  0.00  0.00    +0.000 A 
ATOM      5  C   UNL     1      -1.429  -0.412   0.000  0.00  0.00    +0.000 A 
ATOM      6  C   UNL     1      -1.429  -1.238   0.000  0.00  0.00    +0.000 A 
ENDROOT
BRANCH   4   9
ATOM      7  O   UNL     1      -1.429   1.238   0.000  0.00  0.00    +0.000 OA
ATOM      8  N   UNL     1       0.000   1.238   0.000  0.00  0.00    +0.000 N 
ATOM      9  C   UNL     1      -0.714   0.825   0.000  0.00  0.00    +0.000 C 
ATOM     10  H   UNL     1       0.443   0.982   0.000  0.00  0.00    +0.000 HD
BRANCH   8  11
ATOM     11  C   UNL     1       0.000   2.062   0.000  0.00  0.00    +0.000 C 
BRANCH  11  13
ATOM     12  O   UNL     1       1.429   2.062   0.000  0.00  0.00    +0.000 OA
ATOM     13  C   UNL     1       0.714   2.475   0.000  0.00  0.00    +0.000 C 
BRANCH  13  15
ATOM     14  O   UNL     1       0.000   3.712   0.000  0.00  0.00    +0.000 OA
ATOM     15  C   UNL     1       0.714   3.300   0.000  0.00  0.00    +0.000 C 
ENDBRANCH  13  15
ENDBRANCH  11  13
ENDBRANCH   8  11
ENDBRANCH   4   9
BRANCH   5  18
ATOM     16  O   UNL     1      -2.858  -0.412   0.000  0.00  0.00    +0.000 OA
ATOM     17  O   UNL     1      -2.143   0.825   0.000  0.00  0.00    +0.000 OA
ATOM     18  N   UNL     1      -2.143   0.000   0.000  0.00  0.00    +0.000 N 
ENDBRANCH   5  18
BRANCH   2  21
ATOM     19  O   UNL     1      -1.429  -2.888   0.000  0.00  0.00    +0.000 OA
ATOM     20  O   UNL     1       0.000  -2.888   0.000  0.00  0.00    +0.000 OA
ATOM     21  N   UNL     1      -0.714  -2.475   0.000  0.00  0.00    +0.000 N 
ENDBRANCH   2  21
BRANCH   1  22
ATOM     22  N   UNL     1       0.714  -1.650   0.000  0.00  0.00    +0.000 N 
BRANCH  22  23
ATOM     23  C   UNL     1       1.429  -1.238   0.000  0.00  0.00    +0.000 C 
BRANCH  23  25
ATOM     24 BR   UNL     1       2.858  -1.238   0.000  0.00  0.00    +0.000 Br
ATOM     25  C   UNL     1       2.143  -1.650   0.000  0.00  0.00    +0.000 C 
ENDBRANCH  23  25
ENDBRANCH  22  23
BRANCH  22  26
ATOM     26  C   UNL     1       0.714  -2.475   0.000  0.00  0.00    +0.000 C 
BRANCH  26  28
ATOM     27 BR   UNL     1       1.429  -3.712   0.000  0.00  0.00    +0.000 Br
ATOM     28  C   UNL     1       1.429  -2.888   0.000  0.00  0.00    +0.000 C 
ENDBRANCH  26  28
ENDBRANCH  22  26
ENDBRANCH   1  22
TORSDOF 11
