REMARK  Name = 
REMARK  7 active torsions:
REMARK  status: ('A' for Active; 'I' for Inactive)
REMARK    1  A    between atoms: S_1  and  C_2
REMARK    2  A    between atoms: S_1  and  N_22
REMARK    3  A    between atoms: C_7  and  C_8
REMARK    4  A    between atoms: C_8  and  C_9
REMARK    5  A    between atoms: C_9  and  N_10
REMARK    6  A    between atoms: C_17  and  C_18
REMARK    7  A    between atoms: N_25  and  C_26
REMARK                            x       y       z     vdW  Elec       q    Type
REMARK                         _______ _______ _______ _____ _____    ______ ____
ROOT
ATOM      1  C   UNL     1      -0.726  -0.314   0.000  0.00  0.00    +0.000 A 
ATOM      2  C   UNL     1      -0.726  -1.139   0.000  0.00  0.00    +0.000 A 
ATOM      3  C   UNL     1      -0.012   0.098   0.000  0.00  0.00    +0.000 A 
ATOM      4  C   UNL     1      -0.012  -1.552   0.000  0.00  0.00    +0.000 A 
ATOM      5  C   UNL     1       0.703  -0.314   0.000  0.00  0.00    +0.000 A 
ATOM      6  C   UNL     1       0.703  -1.139   0.000  0.00  0.00    +0.000 A 
ENDROOT
BRANCH   1   7
ATOM      7  S   UNL     1      -1.440   0.098   0.000  0.00  0.00    +0.000 S 
ATOM      8  O   UNL     1      -1.853   0.813   0.000  0.00  0.00    +0.000 OA
ATOM      9  O   UNL     1      -1.028   0.813   0.000  0.00  0.00    +0.000 OA
BRANCH   7  10
ATOM     10  N   UNL     1      -2.155  -0.314   0.000  0.00  0.00    +0.000 NA
ATOM     11  C   UNL     1      -2.869   0.098   0.000  0.00  0.00    +0.000 C 
ATOM     12  O   UNL     1      -2.869   0.923   0.000  0.00  0.00    +0.000 OA
ATOM     13  N   UNL     1      -3.584  -0.314   0.000  0.00  0.00    +0.000 NA
BRANCH  13  14
ATOM     14  C   UNL     1      -3.584  -1.139   0.000  0.00  0.00    +0.000 C 
ATOM     15  C   UNL     1      -2.869  -1.552   0.000  0.00  0.00    +0.000 C 
ATOM     16  C   UNL     1      -2.869  -2.377   0.000  0.00  0.00    +0.000 C 
ATOM     17  C   UNL     1      -4.298  -2.377   0.000  0.00  0.00    +0.000 C 
ATOM     18  C   UNL     1      -4.298  -1.552   0.000  0.00  0.00    +0.000 C 
ATOM     19  C   UNL     1      -3.584  -2.789   0.000  0.00  0.00    +0.000 C 
ATOM     20  C   UNL     1      -3.584  -3.614   0.000  0.00  0.00    +0.000 C 
ENDBRANCH  13  14
ENDBRANCH   7  10
ENDBRANCH   1   7
BRANCH   6  21
ATOM     21  C   UNL     1       1.417  -1.552   0.000  0.00  0.00    +0.000 C 
BRANCH  21  22
ATOM     22  C   UNL     1       2.132  -1.139   0.000  0.00  0.00    +0.000 C 
BRANCH  22  23
ATOM     23  N   UNL     1       2.132  -0.314   0.000  0.00  0.00    +0.000 NA
ATOM     24  C   UNL     1       2.846   0.098   0.000  0.00  0.00    +0.000 C 
ATOM     25  O   UNL     1       3.561  -0.314   0.000  0.00  0.00    +0.000 OA
ATOM     26  N   UNL     1       2.846   0.923   0.000  0.00  0.00    +0.000 N 
ATOM     27  C   UNL     1       2.179   1.408   0.000  0.00  0.00    +0.000 C 
ATOM     28  C   UNL     1       3.514   1.408   0.000  0.00  0.00    +0.000 C 
ATOM     29  C   UNL     1       2.434   2.193   0.000  0.00  0.00    +0.000 C 
ATOM     30  C   UNL     1       3.259   2.193   0.000  0.00  0.00    +0.000 C 
ATOM     31  C   UNL     1       1.949   2.860   0.000  0.00  0.00    +0.000 C 
ATOM     32  O   UNL     1       4.298   1.153   0.000  0.00  0.00    +0.000 OA
BRANCH  30  33
ATOM     33  C   UNL     1       3.744   2.860   0.000  0.00  0.00    +0.000 C 
ATOM     34  C   UNL     1       3.408   3.614   0.000  0.00  0.00    +0.000 C 
ENDBRANCH  30  33
ENDBRANCH  22  23
ENDBRANCH  21  22
ENDBRANCH   6  21
TORSDOF 7
