REMARK  Name = 
REMARK  12 active torsions:
REMARK  status: ('A' for Active; 'I' for Inactive)
REMARK    1  A    between atoms: C_2  and  C_3
REMARK    2  A    between atoms: C_3  and  C_6
REMARK    3  A    between atoms: C_4  and  C_5
REMARK    4  A    between atoms: C_5  and  C_8
REMARK    5  A    between atoms: C_6  and  C_9
REMARK    6  A    between atoms: C_7  and  C_10
REMARK    7  A    between atoms: C_8  and  C_11
REMARK    8  A    between atoms: C_9  and  C_15
REMARK    9  A    between atoms: C_10  and  C_16
REMARK   10  A    between atoms: C_11  and  C_20
REMARK   11  A    between atoms: C_12  and  C_15
REMARK   12  A    between atoms: C_13  and  C_17
REMARK                            x       y       z     vdW  Elec       q    Type
REMARK                         _______ _______ _______ _____ _____    ______ ____
ROOT
ATOM      1  C   UNL     1       6.043   4.653   0.000  0.00  0.00    +0.000 C 
ATOM      2  C   UNL     1       5.903   5.981   0.000  0.00  0.00    +0.000 C 
ATOM      3  C   UNL     1       5.150   5.645   0.000  0.00  0.00    +0.000 C 
ATOM      4  C   UNL     1       6.455   5.368   0.000  0.00  0.00    +0.000 C 
ATOM      5  C   UNL     1       5.236   4.825   0.000  0.00  0.00    +0.000 C 
ATOM      6  O   UNL     1       7.276   5.454   0.000  0.00  0.00    +0.000 OA
ATOM      7  O   UNL     1       4.623   4.273   0.000  0.00  0.00    +0.000 OA
ENDROOT
BRANCH   3   9
ATOM      8  C   UNL     1       3.721   5.645   0.000  0.00  0.00    +0.000 C 
ATOM      9  C   UNL     1       4.435   6.058   0.000  0.00  0.00    +0.000 C 
BRANCH   8  10
ATOM     10  C   UNL     1       3.006   6.058   0.000  0.00  0.00    +0.000 C 
ATOM     11  O   UNL     1       3.006   6.883   0.000  0.00  0.00    +0.000 OA
BRANCH  10  12
ATOM     12  C   UNL     1       2.292   5.645   0.000  0.00  0.00    +0.000 C 
BRANCH  12  13
ATOM     13  C   UNL     1       1.577   6.058   0.000  0.00  0.00    +0.000 C 
BRANCH  13  14
ATOM     14  C   UNL     1       0.863   5.645   0.000  0.00  0.00    +0.000 C 
BRANCH  14  16
ATOM     15  C   UNL     1      -0.566   5.645   0.000  0.00  0.00    +0.000 C 
ATOM     16  C   UNL     1       0.148   6.058   0.000  0.00  0.00    +0.000 C 
ENDBRANCH  14  16
ENDBRANCH  13  14
ENDBRANCH  12  13
ENDBRANCH  10  12
ENDBRANCH   8  10
ENDBRANCH   3   9
BRANCH   2  17
ATOM     17  C   UNL     1       6.075   6.788   0.000  0.00  0.00    +0.000 C 
BRANCH  17  19
ATOM     18  C   UNL     1       5.633   8.147   0.000  0.00  0.00    +0.000 C 
ATOM     19  C   UNL     1       5.462   7.340   0.000  0.00  0.00    +0.000 C 
BRANCH  18  20
ATOM     20  C   UNL     1       6.418   8.402   0.000  0.00  0.00    +0.000 C 
BRANCH  20  21
ATOM     21  C   UNL     1       6.589   9.209   0.000  0.00  0.00    +0.000 C 
BRANCH  21  22
ATOM     22  C   UNL     1       5.976   9.761   0.000  0.00  0.00    +0.000 C 
BRANCH  22  23
ATOM     23  C   UNL     1       6.148  10.568   0.000  0.00  0.00    +0.000 C 
ATOM     24  O   UNL     1       5.535  11.120   0.000  0.00  0.00    +0.000 OA
ATOM     25  O   UNL     1       6.932  10.823   0.000  0.00  0.00    +0.000 OA
ENDBRANCH  22  23
ENDBRANCH  21  22
ENDBRANCH  20  21
ENDBRANCH  18  20
ENDBRANCH  17  19
ENDBRANCH   2  17
TORSDOF 12
