REMARK  Name = 
REMARK  5 active torsions:
REMARK  status: ('A' for Active; 'I' for Inactive)
REMARK    1  A    between atoms: N_2  and  C_4
REMARK    2  A    between atoms: C_10  and  C_12
REMARK    3  A    between atoms: C_15  and  N_18
REMARK    4  A    between atoms: N_21  and  C_22
REMARK    5  A    between atoms: C_25  and  C_28
REMARK                            x       y       z     vdW  Elec       q    Type
REMARK                         _______ _______ _______ _____ _____    ______ ____
ROOT
ATOM      1  C   UNL     1     -12.146  -6.188   0.000  0.00  0.00    +0.000 A 
ATOM      2  C   UNL     1     -11.431  -6.600   0.000  0.00  0.00    +0.000 A 
ATOM      3  C   UNL     1     -11.431  -7.425   0.000  0.00  0.00    +0.000 A 
ATOM      4  C   UNL     1     -12.146  -7.838   0.000  0.00  0.00    +0.000 A 
ATOM      5  C   UNL     1     -12.861  -7.425   0.000  0.00  0.00    +0.000 A 
ATOM      6  C   UNL     1     -12.861  -6.600   0.000  0.00  0.00    +0.000 A 
ENDROOT
BRANCH   4   7
ATOM      7  C   UNL     1     -12.146  -8.662   0.000  0.00  0.00    +0.000 A 
ATOM      8  N   UNL     1     -11.431  -9.075   0.000  0.00  0.00    +0.000 NA
ATOM      9  C   UNL     1     -11.431  -9.900   0.000  0.00  0.00    +0.000 A 
ATOM     10  N   UNL     1     -12.146 -10.312   0.000  0.00  0.00    +0.000 NA
ATOM     11  C   UNL     1     -12.861  -9.900   0.000  0.00  0.00    +0.000 A 
ATOM     12  N   UNL     1     -12.861  -9.075   0.000  0.00  0.00    +0.000 NA
ATOM     13  N   UNL     1     -13.575 -10.312   0.000  0.00  0.00    +0.000 N 
ATOM     14  C   UNL     1     -13.575 -11.137   0.000  0.00  0.00    +0.000 C 
ATOM     15  C   UNL     1     -14.289 -11.550   0.000  0.00  0.00    +0.000 C 
ATOM     16  O   UNL     1     -15.004 -11.137   0.000  0.00  0.00    +0.000 OA
ATOM     17  C   UNL     1     -15.004 -10.312   0.000  0.00  0.00    +0.000 C 
ATOM     18  C   UNL     1     -14.289  -9.900   0.000  0.00  0.00    +0.000 C 
ATOM     19  N   UNL     1     -10.717 -10.312   0.000  0.00  0.00    +0.000 N 
ATOM     20  C   UNL     1     -10.003  -9.900   0.000  0.00  0.00    +0.000 C 
ATOM     21  C   UNL     1      -9.288 -10.312   0.000  0.00  0.00    +0.000 C 
ATOM     22  O   UNL     1      -9.288 -11.137   0.000  0.00  0.00    +0.000 OA
ATOM     23  C   UNL     1     -10.003 -11.550   0.000  0.00  0.00    +0.000 C 
ATOM     24  C   UNL     1     -10.717 -11.137   0.000  0.00  0.00    +0.000 C 
ENDBRANCH   4   7
BRANCH   1  28
ATOM     25  N   UNL     1     -10.717  -5.362   0.000  0.00  0.00    +0.000 NA
ATOM     26  C   UNL     1     -11.431  -4.950   0.000  0.00  0.00    +0.000 C 
ATOM     27  O   UNL     1     -11.431  -4.125   0.000  0.00  0.00    +0.000 OA
ATOM     28  N   UNL     1     -12.146  -5.362   0.000  0.00  0.00    +0.000 NA
BRANCH  25  32
ATOM     29  C   UNL     1      -8.574  -4.125   0.000  0.00  0.00    +0.000 A 
ATOM     30  C   UNL     1      -8.574  -4.950   0.000  0.00  0.00    +0.000 A 
ATOM     31  C   UNL     1      -9.288  -5.362   0.000  0.00  0.00    +0.000 A 
ATOM     32  C   UNL     1     -10.003  -4.950   0.000  0.00  0.00    +0.000 A 
ATOM     33  C   UNL     1     -10.003  -4.125   0.000  0.00  0.00    +0.000 A 
ATOM     34  C   UNL     1      -9.288  -3.712   0.000  0.00  0.00    +0.000 A 
BRANCH  29  41
ATOM     35  C   UNL     1      -7.859  -1.238   0.000  0.00  0.00    +0.000 C 
ATOM     36  C   UNL     1      -7.145  -1.650   0.000  0.00  0.00    +0.000 C 
ATOM     37  C   UNL     1      -7.145  -2.475   0.000  0.00  0.00    +0.000 C 
ATOM     38  N   UNL     1      -7.859  -2.888   0.000  0.00  0.00    +0.000 N 
ATOM     39  C   UNL     1      -8.574  -2.475   0.000  0.00  0.00    +0.000 C 
ATOM     40  C   UNL     1      -8.574  -1.650   0.000  0.00  0.00    +0.000 C 
ATOM     41  C   UNL     1      -7.859  -3.712   0.000  0.00  0.00    +0.000 C 
ATOM     42  O   UNL     1      -7.145  -4.125   0.000  0.00  0.00    +0.000 OA
BRANCH  35  44
ATOM     43  C   UNL     1      -8.574   0.000   0.000  0.00  0.00    +0.000 C 
ATOM     44  N   UNL     1      -7.859  -0.412   0.000  0.00  0.00    +0.000 NA
ATOM     45  C   UNL     1      -7.145   0.000   0.000  0.00  0.00    +0.000 C 
ENDBRANCH  35  44
ENDBRANCH  29  41
ENDBRANCH  25  32
ENDBRANCH   1  28
TORSDOF 5
