REMARK  Name = 
REMARK  4 active torsions:
REMARK  status: ('A' for Active; 'I' for Inactive)
REMARK    1  A    between atoms: C_14  and  N_15
REMARK    2  A    between atoms: N_15  and  C_16
REMARK    3  A    between atoms: C_20  and  C_22
REMARK    4  A    between atoms: C_22  and  N_23
REMARK                            x       y       z     vdW  Elec       q    Type
REMARK                         _______ _______ _______ _____ _____    ______ ____
ROOT
ATOM      1  C   UNL     1      -2.698   0.231   0.000  0.00  0.00    +0.000 A 
ATOM      2  C   UNL     1      -3.407  -0.181   0.000  0.00  0.00    +0.000 A 
ATOM      3  C   UNL     1      -3.407  -1.006   0.000  0.00  0.00    +0.000 A 
ATOM      4  C   UNL     1      -2.698  -1.419   0.000  0.00  0.00    +0.000 A 
ATOM      5  C   UNL     1      -2.013  -1.006   0.000  0.00  0.00    +0.000 A 
ATOM      6  C   UNL     1      -2.013  -0.181   0.000  0.00  0.00    +0.000 A 
ATOM      7  C   UNL     1      -1.295   0.231   0.000  0.00  0.00    +0.000 C 
ATOM      8  C   UNL     1      -1.295  -1.419   0.000  0.00  0.00    +0.000 C 
ATOM      9  N   UNL     1      -0.577  -1.006   0.000  0.00  0.00    +0.000 NA
ATOM     10  C   UNL     1      -0.577  -0.181   0.000  0.00  0.00    +0.000 C 
ATOM     11  O   UNL     1       0.132   0.231   0.000  0.00  0.00    +0.000 OA
ATOM     12  O   UNL     1      -1.295  -2.244   0.000  0.00  0.00    +0.000 OA
ATOM     13 BR   UNL     1      -4.125   0.231   0.000  0.00  0.00    +0.000 Br
ATOM     14  C   UNL     1      -1.295   1.056   0.000  0.00  0.00    +0.000 C 
ENDROOT
BRANCH  14  15
ATOM     15  N   UNL     1      -0.577   1.468   0.000  0.00  0.00    +0.000 NA
BRANCH  15  16
ATOM     16  C   UNL     1       0.247   1.468   0.000  0.00  0.00    +0.000 A 
ATOM     17  C   UNL     1       0.627   2.203   0.000  0.00  0.00    +0.000 A 
ATOM     18  C   UNL     1       0.693   0.775   0.000  0.00  0.00    +0.000 A 
ATOM     19  C   UNL     1       1.518   0.817   0.000  0.00  0.00    +0.000 A 
ATOM     20  C   UNL     1       1.897   1.551   0.000  0.00  0.00    +0.000 A 
ATOM     21  C   UNL     1       1.452   2.244   0.000  0.00  0.00    +0.000 A 
BRANCH  20  22
ATOM     22  C   UNL     1       2.722   1.551   0.000  0.00  0.00    +0.000 C 
BRANCH  22  23
ATOM     23  N   UNL     1       3.135   0.833   0.000  0.00  0.00    +0.000 NA
ATOM     24  C   UNL     1       3.951   0.751   0.000  0.00  0.00    +0.000 C 
ATOM     25  C   UNL     1       2.797   0.083   0.000  0.00  0.00    +0.000 C 
ATOM     26  C   UNL     1       3.407  -0.470   0.000  0.00  0.00    +0.000 C 
ATOM     27  C   UNL     1       4.125  -0.058   0.000  0.00  0.00    +0.000 C 
ENDBRANCH  22  23
ENDBRANCH  20  22
ENDBRANCH  15  16
ENDBRANCH  14  15
TORSDOF 4
