REMARK  Name = 
REMARK  12 active torsions:
REMARK  status: ('A' for Active; 'I' for Inactive)
REMARK    1  A    between atoms: C_6  and  C_27
REMARK    2  A    between atoms: C_10  and  O_22
REMARK    3  A    between atoms: C_15  and  C_30
REMARK    4  A    between atoms: C_16  and  O_48
REMARK    5  A    between atoms: C_30  and  C_31
REMARK    6  A    between atoms: C_31  and  C_32
REMARK    7  A    between atoms: C_32  and  C_33
REMARK    8  A    between atoms: C_39  and  C_42
REMARK    9  A    between atoms: C_40  and  O_43
REMARK   10  A    between atoms: O_43  and  C_50
REMARK   11  A    between atoms: C_55  and  O_57
REMARK   12  A    between atoms: O_57  and  C_59
REMARK                            x       y       z     vdW  Elec       q    Type
REMARK                         _______ _______ _______ _____ _____    ______ ____
ROOT
ATOM      1  C   UNL     1      -3.934   2.266   0.000  0.00  0.00    +0.000 C 
ATOM      2  O   UNL     1      -3.934   1.441   0.000  0.00  0.00    +0.000 OA
ATOM      3  C   UNL     1      -4.648   2.679   0.000  0.00  0.00    +0.000 C 
ATOM      4  C   UNL     1      -4.648   1.029   0.000  0.00  0.00    +0.000 C 
ATOM      5  C   UNL     1      -5.363   2.266   0.000  0.00  0.00    +0.000 C 
ATOM      6  C   UNL     1      -5.363   1.441   0.000  0.00  0.00    +0.000 C 
ATOM      7  C   UNL     1      -3.219   2.679   0.000  0.00  0.00    +0.000 C 
ATOM      8  C   UNL     1      -2.505   2.266   0.000  0.00  0.00    +0.000 C 
ATOM      9  C   UNL     1      -3.219   1.029   0.000  0.00  0.00    +0.000 C 
ATOM     10  C   UNL     1      -1.790   2.679   0.000  0.00  0.00    +0.000 C 
ATOM     11  C   UNL     1      -1.076   2.266   0.000  0.00  0.00    +0.000 C 
ATOM     12  O   UNL     1      -1.076   1.441   0.000  0.00  0.00    +0.000 OA
ATOM     13  C   UNL     1      -1.790   0.204   0.000  0.00  0.00    +0.000 C 
ATOM     14  C   UNL     1      -1.076  -0.208   0.000  0.00  0.00    +0.000 C 
ATOM     15  C   UNL     1      -0.362   1.029   0.000  0.00  0.00    +0.000 C 
ATOM     16  C   UNL     1      -0.362   0.204   0.000  0.00  0.00    +0.000 C 
ATOM     17  C   UNL     1      -2.505  -0.208   0.000  0.00  0.00    +0.000 C 
ATOM     18  C   UNL     1      -3.219   0.204   0.000  0.00  0.00    +0.000 C 
ATOM     19  C   UNL     1      -3.933  -0.208   0.000  0.00  0.00    +0.000 C 
ATOM     20  C   UNL     1      -4.647   0.204   0.000  0.00  0.00    +0.000 C 
ATOM     21  O   UNL     1      -0.361   2.679   0.000  0.00  0.00    +0.000 OA
ATOM     22  C   UNL     1      -3.219   3.504   0.000  0.00  0.00    +0.000 C 
ATOM     23  C   UNL     1      -4.648   3.504   0.000  0.00  0.00    +0.000 C 
ATOM     24  O   UNL     1      -6.077   2.679   0.000  0.00  0.00    +0.000 OA
ATOM     25  C   UNL     1      -5.362  -0.208   0.000  0.00  0.00    +0.000 C 
ENDROOT
BRANCH  10  26
ATOM     26  O   UNL     1      -1.790   3.504   0.000  0.00  0.00    +0.000 OA
ATOM     27  C   UNL     1      -1.076   3.916   0.000  0.00  0.00    +0.000 C 
ENDBRANCH  10  26
BRANCH  15  28
ATOM     28  C   UNL     1       0.353   1.441   0.000  0.00  0.00    +0.000 C 
ATOM     29  C   UNL     1       0.353   2.266   0.000  0.00  0.00    +0.000 C 
BRANCH  28  30
ATOM     30  C   UNL     1       1.067   1.029   0.000  0.00  0.00    +0.000 C 
ATOM     31  O   UNL     1       1.067   0.204   0.000  0.00  0.00    +0.000 OA
BRANCH  30  32
ATOM     32  C   UNL     1       1.782   1.441   0.000  0.00  0.00    +0.000 C 
ATOM     33  C   UNL     1       1.782   2.266   0.000  0.00  0.00    +0.000 C 
BRANCH  32  34
ATOM     34  C   UNL     1       2.496   1.029   0.000  0.00  0.00    +0.000 C 
ATOM     35  O   UNL     1       3.211   1.441   0.000  0.00  0.00    +0.000 OA
ATOM     36  C   UNL     1       2.496   0.204   0.000  0.00  0.00    +0.000 C 
ATOM     37  C   UNL     1       3.925   1.028   0.000  0.00  0.00    +0.000 C 
ATOM     38  C   UNL     1       3.211  -0.209   0.000  0.00  0.00    +0.000 C 
ATOM     39  C   UNL     1       3.925   0.203   0.000  0.00  0.00    +0.000 C 
ATOM     40  C   UNL     1       4.640  -0.209   0.000  0.00  0.00    +0.000 C 
ATOM     41  O   UNL     1       2.707   1.824   0.000  0.00  0.00    +0.000 OA
BRANCH  37  42
ATOM     42  C   UNL     1       4.640   1.441   0.000  0.00  0.00    +0.000 C 
ATOM     43  C   UNL     1       5.354   1.028   0.000  0.00  0.00    +0.000 C 
ATOM     44  C   UNL     1       6.069   1.441   0.000  0.00  0.00    +0.000 C 
ENDBRANCH  37  42
BRANCH  38  45
ATOM     45  O   UNL     1       3.211  -1.034   0.000  0.00  0.00    +0.000 OA
BRANCH  45  46
ATOM     46  C   UNL     1       3.930  -1.446   0.000  0.00  0.00    +0.000 C 
ATOM     47  O   UNL     1       4.643  -1.031   0.000  0.00  0.00    +0.000 OA
ATOM     48  C   UNL     1       3.933  -2.271   0.000  0.00  0.00    +0.000 C 
ATOM     49  C   UNL     1       5.359  -1.441   0.000  0.00  0.00    +0.000 C 
ATOM     50  C   UNL     1       4.649  -2.681   0.000  0.00  0.00    +0.000 C 
ATOM     51  C   UNL     1       5.362  -2.266   0.000  0.00  0.00    +0.000 C 
ATOM     52  C   UNL     1       6.077  -1.029   0.000  0.00  0.00    +0.000 C 
ATOM     53  O   UNL     1       4.646  -3.504   0.000  0.00  0.00    +0.000 OA
BRANCH  51  54
ATOM     54  O   UNL     1       6.077  -2.679   0.000  0.00  0.00    +0.000 OA
BRANCH  54  55
ATOM     55  C   UNL     1       6.077  -3.504   0.000  0.00  0.00    +0.000 C 
ATOM     56  N   UNL     1       6.792  -3.916   0.000  0.00  0.00    +0.000 NA
ATOM     57  O   UNL     1       5.363  -3.916   0.000  0.00  0.00    +0.000 OA
ENDBRANCH  54  55
ENDBRANCH  51  54
ENDBRANCH  45  46
ENDBRANCH  38  45
ENDBRANCH  32  34
ENDBRANCH  30  32
ENDBRANCH  28  30
ENDBRANCH  15  28
BRANCH   6  58
ATOM     58  C   UNL     1      -6.077   1.029   0.000  0.00  0.00    +0.000 C 
ATOM     59  C   UNL     1      -6.792   1.442   0.000  0.00  0.00    +0.000 C 
ENDBRANCH   6  58
BRANCH  16  60
ATOM     60  O   UNL     1       0.352  -0.213   0.000  0.00  0.00    +0.000 OA
ATOM     61  C   UNL     1       0.352  -1.038   0.000  0.00  0.00    +0.000 C 
ENDBRANCH  16  60
TORSDOF 12
