REMARK  Name = 
REMARK  5 active torsions:
REMARK  status: ('A' for Active; 'I' for Inactive)
REMARK    1  A    between atoms: C_1  and  C_12
REMARK    2  A    between atoms: N_3  and  C_27
REMARK    3  A    between atoms: C_7  and  N_16
REMARK    4  A    between atoms: C_22  and  N_25
REMARK    5  A    between atoms: C_27  and  C_28
REMARK                            x       y       z     vdW  Elec       q    Type
REMARK                         _______ _______ _______ _____ _____    ______ ____
ROOT
ATOM      1  C   UNL     1      -2.647   0.480   0.000  0.00  0.00    +0.000 C 
ATOM      2  C   UNL     1      -2.453   1.284   0.000  0.00  0.00    +0.000 C 
ATOM      3  N   UNL     1      -1.701   1.638   0.000  0.00  0.00    +0.000 N 
ATOM      4  C   UNL     1      -2.134  -0.175   0.000  0.00  0.00    +0.000 C 
ATOM      5  C   UNL     1      -0.956   1.275   0.000  0.00  0.00    +0.000 C 
ATOM      6  C   UNL     1      -1.302  -0.182   0.000  0.00  0.00    +0.000 C 
ATOM      7  C   UNL     1      -0.781   0.465   0.000  0.00  0.00    +0.000 C 
ATOM      8  O   UNL     1      -0.307   1.784   0.000  0.00  0.00    +0.000 OA
ENDROOT
BRANCH   7   9
ATOM      9  N   UNL     1      -0.069   0.049   0.000  0.00  0.00    +0.000 NA
ATOM     10  C   UNL     1       0.647   0.458   0.000  0.00  0.00    +0.000 C 
ATOM     11  N   UNL     1       1.359   0.042   0.000  0.00  0.00    +0.000 N 
ATOM     12  O   UNL     1       0.651   1.282   0.000  0.00  0.00    +0.000 OA
ATOM     13  C   UNL     1       1.349  -0.783   0.000  0.00  0.00    +0.000 C 
ATOM     14  C   UNL     1       2.057  -1.198   0.000  0.00  0.00    +0.000 C 
ATOM     15  C   UNL     1       2.776  -0.793   0.000  0.00  0.00    +0.000 C 
ATOM     16  C   UNL     1       2.782   0.032   0.000  0.00  0.00    +0.000 C 
ATOM     17  C   UNL     1       2.069   0.452   0.000  0.00  0.00    +0.000 C 
BRANCH  15  18
ATOM     18  N   UNL     1       3.486  -1.212   0.000  0.00  0.00    +0.000 N 
ATOM     19  N   UNL     1       4.789  -1.497   0.000  0.00  0.00    +0.000 NA
ATOM     20  C   UNL     1       4.243  -0.879   0.000  0.00  0.00    +0.000 A 
ATOM     21  C   UNL     1       4.371  -2.208   0.000  0.00  0.00    +0.000 A 
ATOM     22  C   UNL     1       3.570  -2.029   0.000  0.00  0.00    +0.000 A 
ATOM     23  C   UNL     1       3.016  -2.632   0.000  0.00  0.00    +0.000 A 
ATOM     24  C   UNL     1       3.263  -3.415   0.000  0.00  0.00    +0.000 A 
ATOM     25  C   UNL     1       4.068  -3.590   0.000  0.00  0.00    +0.000 A 
ATOM     26  N   UNL     1       4.617  -2.986   0.000  0.00  0.00    +0.000 NA
ATOM     27  O   UNL     1       4.420  -0.074   0.000  0.00  0.00    +0.000 OA
ENDBRANCH  15  18
ENDBRANCH   7   9
BRANCH   1  32
ATOM     28  C   UNL     1      -4.788   0.059   0.000  0.00  0.00    +0.000 A 
ATOM     29  C   UNL     1      -4.789  -0.768   0.000  0.00  0.00    +0.000 A 
ATOM     30  C   UNL     1      -4.075  -1.180   0.000  0.00  0.00    +0.000 A 
ATOM     31  C   UNL     1      -3.359  -0.767   0.000  0.00  0.00    +0.000 A 
ATOM     32  C   UNL     1      -3.362   0.063   0.000  0.00  0.00    +0.000 A 
ATOM     33  C   UNL     1      -4.077   0.472   0.000  0.00  0.00    +0.000 A 
ATOM     34  F   UNL     1      -4.075  -2.005   0.000  0.00  0.00    +0.000 F 
ATOM     35  F   UNL     1      -2.644  -1.178   0.000  0.00  0.00    +0.000 F 
ENDBRANCH   1  32
BRANCH   3  36
ATOM     36  C   UNL     1      -1.695   2.463   0.000  0.00  0.00    +0.000 C 
BRANCH  36  37
ATOM     37  C   UNL     1      -0.979   2.870   0.000  0.00  0.00    +0.000 C 
ATOM     38  F   UNL     1      -0.268   3.291   0.000  0.00  0.00    +0.000 F 
ATOM     39  F   UNL     1      -1.397   3.591   0.000  0.00  0.00    +0.000 F 
ATOM     40  F   UNL     1      -0.268   2.462   0.000  0.00  0.00    +0.000 F 
ENDBRANCH  36  37
ENDBRANCH   3  36
TORSDOF 5
