REMARK  Name = 
REMARK  0 active torsions:
REMARK  status: ('A' for Active; 'I' for Inactive)
REMARK                            x       y       z     vdW  Elec       q    Type
REMARK                         _______ _______ _______ _____ _____    ______ ____
ROOT
ATOM      1  C   UNL     1      -0.500   1.361   0.000  0.00  0.00    +0.000 C 
ATOM      2  C   UNL     1      -0.500   0.536   0.000  0.00  0.00    +0.000 A 
ATOM      3  C   UNL     1       0.214   0.124   0.000  0.00  0.00    +0.000 A 
ATOM      4  C   UNL     1       0.214  -0.701   0.000  0.00  0.00    +0.000 A 
ATOM      5  O   UNL     1       0.929  -1.114   0.000  0.00  0.00    +0.000 OA
ATOM      6  C   UNL     1      -0.500  -1.114   0.000  0.00  0.00    +0.000 A 
ATOM      7  C   UNL     1      -1.215  -0.701   0.000  0.00  0.00    +0.000 A 
ATOM      8  O   UNL     1      -1.215   0.124   0.000  0.00  0.00    +0.000 OA
ATOM      9  O   UNL     1       0.929   0.536   0.000  0.00  0.00    +0.000 OA
ENDROOT
TORSDOF 0
REMARK  Name = 
REMARK  0 active torsions:
REMARK  status: ('A' for Active; 'I' for Inactive)
REMARK                            x       y       z     vdW  Elec       q    Type
REMARK                         _______ _______ _______ _____ _____    ______ ____
ROOT
ATOM      1  C   UNL     1       4.244   1.467   0.000  0.00  0.00    +0.000 C 
ATOM      2  C   UNL     1       4.244   0.642   0.000  0.00  0.00    +0.000 A 
ATOM      3  C   UNL     1       4.958   0.229   0.000  0.00  0.00    +0.000 A 
ATOM      4  C   UNL     1       4.958  -0.596   0.000  0.00  0.00    +0.000 A 
ATOM      5  O   UNL     1       5.672  -1.008   0.000  0.00  0.00    +0.000 OA
ATOM      6  C   UNL     1       4.244  -1.008   0.000  0.00  0.00    +0.000 A 
ATOM      7  C   UNL     1       3.529  -0.596   0.000  0.00  0.00    +0.000 A 
ATOM      8  O   UNL     1       3.529   0.229   0.000  0.00  0.00    +0.000 OA
ATOM      9  O   UNL     1       5.672   0.642   0.000  0.00  0.00    +0.000 OA
ENDROOT
TORSDOF 0
REMARK  Name = 
REMARK  0 active torsions:
REMARK  status: ('A' for Active; 'I' for Inactive)
REMARK                            x       y       z     vdW  Elec       q    Type
REMARK                         _______ _______ _______ _____ _____    ______ ____
ROOT
ATOM      1  C   UNL     1      -0.318  -2.764   0.000  0.00  0.00    +0.000 C 
ATOM      2  C   UNL     1      -0.318  -3.589   0.000  0.00  0.00    +0.000 A 
ATOM      3  C   UNL     1       0.397  -4.001   0.000  0.00  0.00    +0.000 A 
ATOM      4  C   UNL     1       0.397  -4.826   0.000  0.00  0.00    +0.000 A 
ATOM      5  O   UNL     1       1.111  -5.239   0.000  0.00  0.00    +0.000 OA
ATOM      6  C   UNL     1      -0.318  -5.239   0.000  0.00  0.00    +0.000 A 
ATOM      7  C   UNL     1      -1.032  -4.826   0.000  0.00  0.00    +0.000 A 
ATOM      8  O   UNL     1      -1.032  -4.001   0.000  0.00  0.00    +0.000 OA
ATOM      9  O   UNL     1       1.111  -3.589   0.000  0.00  0.00    +0.000 OA
ENDROOT
TORSDOF 0
REMARK  Name = 
REMARK  0 active torsions:
REMARK  status: ('A' for Active; 'I' for Inactive)
REMARK                            x       y       z     vdW  Elec       q    Type
REMARK                         _______ _______ _______ _____ _____    ______ ____
ROOT
ATOM      1 GA   UNL     1       1.643   0.949   0.000  0.00  0.00    +0.000 Ga
ENDROOT
TORSDOF 0
