REMARK  Name = 
REMARK  29 active torsions:
REMARK  status: ('A' for Active; 'I' for Inactive)
REMARK    1  A    between atoms: C_2  and  CA_8
REMARK    2  A    between atoms: C_5  and  CA_10
REMARK    3  A    between atoms: CA_6  and  C_14
REMARK    4  A    between atoms: C_7  and  CA_40
REMARK    5  A    between atoms: C_9  and  C_11
REMARK    6  A    between atoms: CA_10  and  N_13
REMARK    7  A    between atoms: CA_10  and  C_58
REMARK    8  A    between atoms: C_12  and  CA_15
REMARK    9  A    between atoms: CA_15  and  N_19
REMARK   10  A    between atoms: CA_15  and  C_24
REMARK   11  A    between atoms: N_18  and  C_45
REMARK   12  A    between atoms: C_22  and  C_24
REMARK   13  A    between atoms: C_23  and  CA_42
REMARK   14  A    between atoms: C_25  and  CA_48
REMARK   15  A    between atoms: N_26  and  CA_48
REMARK   16  A    between atoms: N_31  and  CA_42
REMARK   17  A    between atoms: N_31  and  C_53
REMARK   18  A    between atoms: CA_40  and  CB_73
REMARK   19  A    between atoms: CA_42  and  CB_74
REMARK   20  A    between atoms: C_45  and  C_53
REMARK   21  A    between atoms: C_45  and  C_55
REMARK   22  A    between atoms: NE_46  and  CD_72
REMARK   23  A    between atoms: NE_47  and  CD_71
REMARK   24  A    between atoms: C_55  and  C_56
REMARK   25  A    between atoms: C_59  and  O_67
REMARK   26  A    between atoms: CD_71  and  CG_76
REMARK   27  A    between atoms: CD_72  and  CG_77
REMARK   28  A    between atoms: CB_73  and  CG_76
REMARK   29  A    between atoms: CB_74  and  CG_77
REMARK                            x       y       z     vdW  Elec       q    Type
REMARK                         _______ _______ _______ _____ _____    ______ ____
ROOT
ATOM      1  C   UNL     1      -1.933   2.359   0.000  0.00  0.00    +0.000 C 
ATOM      2  N   UNL     1      -1.218   2.772   0.000  0.00  0.00    +0.000 NA
ATOM      3  O   UNL     1      -1.933   1.534   0.000  0.00  0.00    +0.000 OA
ENDROOT
BRANCH   1   4
ATOM      4  CA  UNL     1      -2.647   2.772   0.000  0.00  0.00    +0.000 C 
BRANCH   4   5
ATOM      5  N   ACE A   5      -3.362   2.359   0.000  0.00  0.00    +0.000 NA
ATOM      6  C   UNL     1      -3.362   1.534   0.000  0.00  0.00    +0.000 C 
ATOM      7  O   UNL     1      -2.647   1.122   0.000  0.00  0.00    +0.000 OA
BRANCH   6   8
ATOM      8  CA  UNL     1      -4.076   1.122   0.000  0.00  0.00    +0.000 C 
BRANCH   8  10
ATOM      9  C   UNL     1      -5.505   1.122   0.000  0.00  0.00    +0.000 C 
ATOM     10  N   UNL     1      -4.791   1.534   0.000  0.00  0.00    +0.000 NA
ATOM     11  O   UNL     1      -5.505   0.297   0.000  0.00  0.00    +0.000 OA
BRANCH   9  14
ATOM     12  N   UNL     1      -6.973   1.199   0.000  0.00  0.00    +0.000 N 
ATOM     13  C   UNL     1      -7.145   0.392   0.000  0.00  0.00    +0.000 C 
ATOM     14  CA  UNL     1      -6.220   1.534   0.000  0.00  0.00    +0.000 C 
ATOM     15  CD  UNL     1      -7.525   1.812   0.000  0.00  0.00    +0.000 C 
ATOM     16  CB  UNL     1      -6.306   2.355   0.000  0.00  0.00    +0.000 C 
ATOM     17  O   UNL     1      -6.532  -0.160   0.000  0.00  0.00    +0.000 OA
ATOM     18  CG  UNL     1      -7.113   2.526   0.000  0.00  0.00    +0.000 C 
ATOM     19  OD  UNL     1      -7.448   3.280   0.000  0.00  0.00    +0.000 OA
BRANCH  13  22
ATOM     20  N   UNL     1      -8.184  -0.648   0.000  0.00  0.00    +0.000 N 
ATOM     21  C   UNL     1      -7.699  -1.315   0.000  0.00  0.00    +0.000 C 
ATOM     22  CA  UNL     1      -7.929   0.137   0.000  0.00  0.00    +0.000 C 
ATOM     23  O   UNL     1      -6.879  -1.229   0.000  0.00  0.00    +0.000 OA
ATOM     24  CD  UNL     1      -9.009  -0.648   0.000  0.00  0.00    +0.000 C 
ATOM     25  CB  UNL     1      -8.597   0.622   0.000  0.00  0.00    +0.000 C 
ATOM     26  CG  UNL     1      -9.264   0.137   0.000  0.00  0.00    +0.000 C 
BRANCH  21  27
ATOM     27  CA  UNL     1      -8.035  -2.069   0.000  0.00  0.00    +0.000 C 
ATOM     28  N   UNL     1      -8.855  -2.155   0.000  0.00  0.00    +0.000 NA
BRANCH  27  29
ATOM     29  CB  UNL     1      -7.550  -2.736   0.000  0.00  0.00    +0.000 C 
BRANCH  29  30
ATOM     30  CG  UNL     1      -7.886  -3.490   0.000  0.00  0.00    +0.000 C 
BRANCH  30  31
ATOM     31  CD  UNL     1      -7.401  -4.157   0.000  0.00  0.00    +0.000 C 
BRANCH  31  34
ATOM     32  CZ  UNL     1      -7.251  -5.578   0.000  0.00  0.00    +0.000 C 
ATOM     33  NH1 UNL     1      -6.431  -5.492   0.000  0.00  0.00    +0.000 NA
ATOM     34  NE  UNL     1      -7.736  -4.911   0.000  0.00  0.00    +0.000 NA
ATOM     35  NH2 UNL     1      -7.587  -6.332   0.000  0.00  0.00    +0.000 NA
ENDBRANCH  31  34
ENDBRANCH  30  31
ENDBRANCH  29  30
ENDBRANCH  27  29
ENDBRANCH  21  27
ENDBRANCH  13  22
ENDBRANCH   9  14
ENDBRANCH   8  10
ENDBRANCH   6   8
ENDBRANCH   4   5
BRANCH   4  36
ATOM     36  C   UNL     1      -2.647   3.597   0.000  0.00  0.00    +0.000 C 
BRANCH  36  37
ATOM     37  C   UNL     1      -3.362   4.009   0.000  0.00  0.00    +0.000 A 
ATOM     38  S   UNL     1      -3.448   4.830   0.000  0.00  0.00    +0.000 S 
ATOM     39  C   UNL     1      -4.255   5.001   0.000  0.00  0.00    +0.000 A 
ATOM     40  C   UNL     1      -4.115   3.674   0.000  0.00  0.00    +0.000 A 
ATOM     41  C   UNL     1      -4.667   4.287   0.000  0.00  0.00    +0.000 A 
ENDBRANCH  36  37
ENDBRANCH   4  36
ENDBRANCH   1   4
BRANCH   2  42
ATOM     42  CA  UNL     1      -0.504   2.359   0.000  0.00  0.00    +0.000 C 
BRANCH  42  44
ATOM     43  N   UNL     1       0.211   3.597   0.000  0.00  0.00    +0.000 N 
ATOM     44  C   UNL     1       0.211   2.772   0.000  0.00  0.00    +0.000 C 
ATOM     45  C   UNL     1       0.878   4.082   0.000  0.00  0.00    +0.000 C 
ATOM     46  O   UNL     1       0.925   2.359   0.000  0.00  0.00    +0.000 OA
ATOM     47  C   UNL     1      -0.457   4.082   0.000  0.00  0.00    +0.000 C 
ATOM     48  C   UNL     1       0.623   4.867   0.000  0.00  0.00    +0.000 C 
ATOM     49  C   UNL     1      -0.202   4.867   0.000  0.00  0.00    +0.000 C 
BRANCH  45  50
ATOM     50  C   UNL     1       1.663   3.827   0.000  0.00  0.00    +0.000 C 
ATOM     51  N   UNL     1       2.276   4.379   0.000  0.00  0.00    +0.000 NA
ATOM     52  O   UNL     1       1.834   3.020   0.000  0.00  0.00    +0.000 OA
BRANCH  51  53
ATOM     53  C   UNL     1       3.060   4.124   0.000  0.00  0.00    +0.000 C 
BRANCH  53  54
ATOM     54  C   ACE A   0       3.674   4.676   0.000  0.00  0.00    +0.000 C 
BRANCH  54  55
ATOM     55  N   UNL     1       4.458   4.421   0.000  0.00  0.00    +0.000 NA
BRANCH  55  56
ATOM     56  CA  UNL     1       5.071   4.973   0.000  0.00  0.00    +0.000 C 
BRANCH  56  57
ATOM     57  C   UNL     1       4.900   5.780   0.000  0.00  0.00    +0.000 C 
ATOM     58  O   UNL     1       4.115   6.035   0.000  0.00  0.00    +0.000 OA
ATOM     59  OXT UNL     1       5.513   6.332   0.000  0.00  0.00    +0.000 OA
ENDBRANCH  56  57
BRANCH  56  60
ATOM     60  CB  UNL     1       5.856   4.718   0.000  0.00  0.00    +0.000 C 
BRANCH  60  61
ATOM     61  CG  UNL     1       6.469   5.270   0.000  0.00  0.00    +0.000 C 
BRANCH  61  62
ATOM     62  CD  UNL     1       7.253   5.015   0.000  0.00  0.00    +0.000 C 
BRANCH  62  65
ATOM     63  CZ  UNL     1       8.651   5.312   0.000  0.00  0.00    +0.000 C 
ATOM     64  NH1 UNL     1       9.264   5.864   0.000  0.00  0.00    +0.000 NA
ATOM     65  NE  UNL     1       7.867   5.567   0.000  0.00  0.00    +0.000 NA
ATOM     66  NH2 UNL     1       8.823   4.505   0.000  0.00  0.00    +0.000 NA
ENDBRANCH  62  65
ENDBRANCH  61  62
ENDBRANCH  60  61
ENDBRANCH  56  60
ENDBRANCH  55  56
ENDBRANCH  54  55
ENDBRANCH  53  54
BRANCH  53  67
ATOM     67  C   UNL     1       3.232   3.317   0.000  0.00  0.00    +0.000 C 
BRANCH  67  68
ATOM     68  C   UNL     1       4.016   3.062   0.000  0.00  0.00    +0.000 A 
ATOM     69  C   UNL     1       5.586   2.552   0.000  0.00  0.00    +0.000 A 
ATOM     70  C   UNL     1       4.188   2.255   0.000  0.00  0.00    +0.000 A 
ATOM     71  C   UNL     1       4.630   3.614   0.000  0.00  0.00    +0.000 A 
ATOM     72  C   UNL     1       5.414   3.359   0.000  0.00  0.00    +0.000 A 
ATOM     73  C   UNL     1       4.973   2.000   0.000  0.00  0.00    +0.000 A 
BRANCH  69  74
ATOM     74  O   UNL     1       6.370   2.297   0.000  0.00  0.00    +0.000 OA
ATOM     75  C   UNL     1       6.542   1.490   0.000  0.00  0.00    +0.000 C 
ENDBRANCH  69  74
ENDBRANCH  67  68
ENDBRANCH  53  67
ENDBRANCH  51  53
ENDBRANCH  45  50
ENDBRANCH  42  44
BRANCH  42  76
ATOM     76  C   UNL     1      -0.504   1.534   0.000  0.00  0.00    +0.000 C 
ATOM     77  O   UNL     1      -1.218   1.122   0.000  0.00  0.00    +0.000 OA
ENDBRANCH  42  76
ENDBRANCH   2  42
TORSDOF 29
