REMARK  Name = 
REMARK  4 active torsions:
REMARK  status: ('A' for Active; 'I' for Inactive)
REMARK    1  A    between atoms: C_2  and  N_3
REMARK    2  A    between atoms: C_2  and  C_14
REMARK    3  A    between atoms: N_3  and  C_4
REMARK    4  A    between atoms: C_7  and  C_8
REMARK                            x       y       z     vdW  Elec       q    Type
REMARK                         _______ _______ _______ _____ _____    ______ ____
ROOT
ATOM      1  C   UNL     1      -1.429  -2.475   0.000  0.00  0.00    +0.000 C 
ATOM      2  C   UNL     1      -1.429  -1.650   0.000  0.00  0.00    +0.000 C 
ENDROOT
BRANCH   2   3
ATOM      3  C   UNL     1      -0.715  -1.238   0.000  0.00  0.00    +0.000 A 
ATOM      4  C   UNL     1       0.000  -1.650   0.000  0.00  0.00    +0.000 A 
ATOM      5  C   UNL     1       0.715  -1.238   0.000  0.00  0.00    +0.000 A 
ATOM      6  C   UNL     1       0.715  -0.412   0.000  0.00  0.00    +0.000 A 
ATOM      7  N   UNL     1       0.000   0.000   0.000  0.00  0.00    +0.000 NA
ATOM      8  C   UNL     1      -0.715  -0.412   0.000  0.00  0.00    +0.000 A 
ATOM      9  O   UNL     1      -1.429   0.000   0.000  0.00  0.00    +0.000 OA
ATOM     10  C   UNL     1       1.429   0.000   0.000  0.00  0.00    +0.000 A 
ATOM     11  C   UNL     1       2.143  -0.412   0.000  0.00  0.00    +0.000 A 
ATOM     12  C   UNL     1       2.143  -1.238   0.000  0.00  0.00    +0.000 A 
ATOM     13 CL   UNL     1       2.858  -1.650   0.000  0.00  0.00    +0.000 Cl
ATOM     14  C   UNL     1       1.429  -1.650   0.000  0.00  0.00    +0.000 A 
ENDBRANCH   2   3
BRANCH   2  15
ATOM     15  N   UNL     1      -2.143  -1.238   0.000  0.00  0.00    +0.000 NA
BRANCH  15  16
ATOM     16  C   UNL     1      -2.858  -1.650   0.000  0.00  0.00    +0.000 A 
ATOM     17  C   UNL     1      -2.858  -2.475   0.000  0.00  0.00    +0.000 A 
ATOM     18  C   UNL     1      -3.572  -2.888   0.000  0.00  0.00    +0.000 A 
ATOM     19  C   UNL     1      -4.287  -2.475   0.000  0.00  0.00    +0.000 A 
ATOM     20  N   UNL     1      -4.287  -1.650   0.000  0.00  0.00    +0.000 N 
ATOM     21  C   UNL     1      -5.001  -1.238   0.000  0.00  0.00    +0.000 C 
ATOM     22  C   UNL     1      -3.572  -1.238   0.000  0.00  0.00    +0.000 A 
ATOM     23  O   UNL     1      -3.572  -0.412   0.000  0.00  0.00    +0.000 OA
BRANCH  19  24
ATOM     24  C   UNL     1      -5.001  -2.888   0.000  0.00  0.00    +0.000 C 
ATOM     25  N   UNL     1      -5.716  -3.300   0.000  0.00  0.00    +0.000 NA
ENDBRANCH  19  24
ENDBRANCH  15  16
ENDBRANCH   2  15
TORSDOF 4
