REMARK  Name = 
REMARK  2 active torsions:
REMARK  status: ('A' for Active; 'I' for Inactive)
REMARK    1  A    between atoms: CA_1  and  C_7
REMARK    2  A    between atoms: CA_6  and  C_10
REMARK                            x       y       z     vdW  Elec       q    Type
REMARK                         _______ _______ _______ _____ _____    ______ ____
ROOT
ATOM      1  CA  UNL     1       0.714   0.000   0.000  0.00  0.00    +0.000 A 
ATOM      2  C   UNL     1       0.714   0.825   0.000  0.00  0.00    +0.000 A 
ATOM      3  N   UNL     1       0.000  -0.412   0.000  0.00  0.00    +0.000 NA
ATOM      4  C   UNL     1       0.000   1.237   0.000  0.00  0.00    +0.000 A 
ATOM      5  C   UNL     1      -0.714   0.825   0.000  0.00  0.00    +0.000 A 
ATOM      6  CA  UNL     1      -0.714   0.000   0.000  0.00  0.00    +0.000 A 
ENDROOT
BRANCH   1   7
ATOM      7  C   UNL     1       1.429  -0.412   0.000  0.00  0.00    +0.000 C 
ATOM      8  O   UNL     1       2.143   0.000   0.000  0.00  0.00    +0.000 OA
ATOM      9  OXT UNL     1       1.429  -1.238   0.000  0.00  0.00    +0.000 OA
ENDBRANCH   1   7
BRANCH   6  10
ATOM     10  C   UNL     1      -1.429  -0.412   0.000  0.00  0.00    +0.000 C 
ATOM     11  O   UNL     1      -2.143   0.000   0.000  0.00  0.00    +0.000 OA
ATOM     12  OXT UNL     1      -1.429  -1.238   0.000  0.00  0.00    +0.000 OA
ENDBRANCH   6  10
TORSDOF 2
