REMARK  Name = 
REMARK  4 active torsions:
REMARK  status: ('A' for Active; 'I' for Inactive)
REMARK    1  A    between atoms: C_2  and  C_3
REMARK    2  A    between atoms: C_3  and  C_5
REMARK    3  A    between atoms: C_5  and  C_7
REMARK    4  A    between atoms: C_12  and  S_19
REMARK                            x       y       z     vdW  Elec       q    Type
REMARK                         _______ _______ _______ _____ _____    ______ ____
ROOT
ATOM      1  C   UNL     1       0.715  -0.412   0.000  0.00  0.00    +0.000 C 
ATOM      2  N   UNL     1       1.429   0.000   0.000  0.00  0.00    +0.000 NA
ATOM      3  C   UNL     1       2.143  -0.412   0.000  0.00  0.00    +0.000 A 
ATOM      4  C   UNL     1       2.858   0.000   0.000  0.00  0.00    +0.000 A 
ATOM      5  C   UNL     1       3.572  -0.412   0.000  0.00  0.00    +0.000 A 
ATOM      6  C   UNL     1       3.572  -1.238   0.000  0.00  0.00    +0.000 A 
ATOM      7  C   UNL     1       2.858  -1.650   0.000  0.00  0.00    +0.000 A 
ATOM      8  C   UNL     1       2.143  -1.238   0.000  0.00  0.00    +0.000 A 
ATOM      9  S   UNL     1       1.429  -1.650   0.000  0.00  0.00    +0.000 S 
ATOM     10  O   UNL     1       1.959  -2.282   0.000  0.00  0.00    +0.000 OA
ATOM     11  O   UNL     1       0.899  -2.282   0.000  0.00  0.00    +0.000 OA
ATOM     12  N   UNL     1       0.715  -1.238   0.000  0.00  0.00    +0.000 NA
ATOM     13 CL   UNL     1       4.287   0.000   0.000  0.00  0.00    +0.000 Cl
ENDROOT
BRANCH   6  14
ATOM     14  S   UNL     1       4.287  -1.650   0.000  0.00  0.00    +0.000 S 
ATOM     15  O   UNL     1       5.001  -2.062   0.000  0.00  0.00    +0.000 OA
ATOM     16  O   UNL     1       3.874  -2.365   0.000  0.00  0.00    +0.000 OA
ATOM     17  N   UNL     1       4.699  -0.935   0.000  0.00  0.00    +0.000 NA
ENDBRANCH   6  14
BRANCH   1  18
ATOM     18  C   UNL     1       0.000   0.000   0.000  0.00  0.00    +0.000 C 
ATOM     19  C   UNL     1       0.000   0.825   0.000  0.00  0.00    +0.000 C 
BRANCH  18  20
ATOM     20  C   UNL     1      -0.715  -0.412   0.000  0.00  0.00    +0.000 C 
ATOM     21  C   UNL     1      -0.715  -1.238   0.000  0.00  0.00    +0.000 C 
BRANCH  20  23
ATOM     22  C   UNL     1      -2.143  -0.412   0.000  0.00  0.00    +0.000 C 
ATOM     23  C   UNL     1      -1.429   0.000   0.000  0.00  0.00    +0.000 C 
ENDBRANCH  20  23
ENDBRANCH  18  20
ENDBRANCH   1  18
TORSDOF 4
