REMARK  Name = 
REMARK  6 active torsions:
REMARK  status: ('A' for Active; 'I' for Inactive)
REMARK    1  A    between atoms: C_2  and  O_3
REMARK    2  A    between atoms: O_3  and  C_4
REMARK    3  A    between atoms: C_4  and  C_5
REMARK    4  A    between atoms: C_7  and  N_8
REMARK    5  A    between atoms: C_12  and  C_14
REMARK    6  A    between atoms: C_17  and  N_20
REMARK                            x       y       z     vdW  Elec       q    Type
REMARK                         _______ _______ _______ _____ _____    ______ ____
ROOT
ATOM      1  N   UNL     1       0.715  -0.412   0.000  0.00  0.00    +0.000 NA
ATOM      2  C   UNL     1       0.715  -1.238   0.000  0.00  0.00    +0.000 A 
ATOM      3  N   UNL     1       1.382  -1.722   0.000  0.00  0.00    +0.000 NA
ATOM      4  C   UNL     1       1.127  -2.507   0.000  0.00  0.00    +0.000 A 
ATOM      5  C   UNL     1       0.302  -2.507   0.000  0.00  0.00    +0.000 A 
ATOM      6  O   UNL     1       0.047  -1.722   0.000  0.00  0.00    +0.000 OA
ENDROOT
BRANCH   1   9
ATOM      7  C   UNL     1       2.858   0.000   0.000  0.00  0.00    +0.000 A 
ATOM      8  C   UNL     1       2.143  -0.412   0.000  0.00  0.00    +0.000 A 
ATOM      9  C   UNL     1       1.429   0.000   0.000  0.00  0.00    +0.000 A 
ATOM     10  C   UNL     1       1.429   0.825   0.000  0.00  0.00    +0.000 A 
ATOM     11  C   UNL     1       0.715   1.238   0.000  0.00  0.00    +0.000 C 
ATOM     12  C   UNL     1       2.143   1.238   0.000  0.00  0.00    +0.000 A 
ATOM     13  C   UNL     1       2.858   0.825   0.000  0.00  0.00    +0.000 A 
BRANCH   7  14
ATOM     14  C   UNL     1       3.572  -0.412   0.000  0.00  0.00    +0.000 C 
BRANCH  14  15
ATOM     15  O   UNL     1       4.287   0.000   0.000  0.00  0.00    +0.000 OA
BRANCH  15  17
ATOM     16  C   UNL     1       5.716   0.000   0.000  0.00  0.00    +0.000 C 
ATOM     17  C   UNL     1       5.001  -0.412   0.000  0.00  0.00    +0.000 C 
ENDBRANCH  15  17
ENDBRANCH  14  15
ENDBRANCH   7  14
ENDBRANCH   1   9
BRANCH   5  18
ATOM     18  C   UNL     1      -0.183  -3.175   0.000  0.00  0.00    +0.000 A 
ATOM     19  C   UNL     1       0.153  -3.928   0.000  0.00  0.00    +0.000 A 
ATOM     20  C   UNL     1      -0.332  -4.596   0.000  0.00  0.00    +0.000 A 
ATOM     21  C   UNL     1      -1.153  -4.509   0.000  0.00  0.00    +0.000 A 
ATOM     22  C   UNL     1      -1.488  -3.756   0.000  0.00  0.00    +0.000 A 
ATOM     23  C   UNL     1      -1.003  -3.088   0.000  0.00  0.00    +0.000 A 
BRANCH  21  24
ATOM     24  N   UNL     1      -1.638  -5.177   0.000  0.00  0.00    +0.000 N 
ATOM     25  C   UNL     1      -1.383  -5.961   0.000  0.00  0.00    +0.000 C 
ATOM     26  C   UNL     1      -2.050  -6.446   0.000  0.00  0.00    +0.000 C 
ATOM     27  N   UNL     1      -2.718  -5.961   0.000  0.00  0.00    +0.000 NA
ATOM     28  C   UNL     1      -2.463  -5.177   0.000  0.00  0.00    +0.000 C 
ATOM     29  O   UNL     1      -2.948  -4.509   0.000  0.00  0.00    +0.000 OA
ENDBRANCH  21  24
ENDBRANCH   5  18
TORSDOF 6
