REMARK  Name = 
REMARK  2 active torsions:
REMARK  status: ('A' for Active; 'I' for Inactive)
REMARK    1  A    between atoms: C1*_1  and  N_2
REMARK    2  A    between atoms: C4*_7  and  C5*_12
REMARK                            x       y       z     vdW  Elec       q    Type
REMARK                         _______ _______ _______ _____ _____    ______ ____
ROOT
ATOM      1  N   UNL     1       1.019   0.636   0.000  0.00  0.00    +0.000 N 
ATOM      2  C   UNL     1       0.411   0.992   0.000  0.00  0.00    +0.000 A 
ATOM      3  C   UNL     1       1.661   0.992   0.000  0.00  0.00    +0.000 A 
ATOM      4  N   UNL     1       0.411   1.706   0.000  0.00  0.00    +0.000 NA
ATOM      5  O   UNL     1      -0.324   0.657   0.000  0.00  0.00    +0.000 OA
ATOM      6  C   UNL     1       1.661   1.706   0.000  0.00  0.00    +0.000 A 
ATOM      7  C   UNL     1       1.019   2.066   0.000  0.00  0.00    +0.000 A 
ATOM      8 BR   UNL     1       2.075   1.925   0.000  0.00  0.00    +0.000 Br
ATOM      9  O   UNL     1       1.019   2.772   0.000  0.00  0.00    +0.000 OA
ENDROOT
BRANCH   1  10
ATOM     10  C1* UNL     1       1.019  -1.183   0.000  0.00  0.00    +0.000 C 
ATOM     11  O4* UNL     1       0.104  -0.639   0.000  0.00  0.00    +0.000 OA
ATOM     12  C2* UNL     1       0.641  -1.947   0.000  0.00  0.00    +0.000 C 
ATOM     13  C4* UNL     1      -0.864  -1.183   0.000  0.00  0.00    +0.000 C 
ATOM     14  C3* UNL     1      -0.508  -1.947   0.000  0.00  0.00    +0.000 C 
ATOM     15  O3* UNL     1      -0.839  -2.772   0.000  0.00  0.00    +0.000 OA
BRANCH  13  16
ATOM     16  C5* UNL     1      -1.106  -0.394   0.000  0.00  0.00    +0.000 C 
ATOM     17  O5* UNL     1      -2.075  -0.600   0.000  0.00  0.00    +0.000 OA
ENDBRANCH  13  16
ENDBRANCH   1  10
TORSDOF 2
