REMARK  Name = 
REMARK  27 active torsions:
REMARK  status: ('A' for Active; 'I' for Inactive)
REMARK    1  A    between atoms: P_1  and  O_4
REMARK    2  A    between atoms: O_4  and  C_23
REMARK    3  A    between atoms: O_5  and  C_27
REMARK    4  A    between atoms: O_16  and  C_62
REMARK    5  A    between atoms: N_18  and  C_54
REMARK    6  A    between atoms: N_19  and  C_60
REMARK    7  A    between atoms: C_24  and  C_27
REMARK    8  A    between atoms: C_26  and  C_33
REMARK    9  A    between atoms: C_27  and  C_32
REMARK   10  A    between atoms: C_32  and  C_35
REMARK   11  A    between atoms: C_33  and  C_36
REMARK   12  A    between atoms: C_35  and  C_37
REMARK   13  A    between atoms: C_37  and  C_40
REMARK   14  A    between atoms: C_39  and  C_41
REMARK   15  A    between atoms: C_40  and  C_43
REMARK   16  A    between atoms: C_43  and  C_46
REMARK   17  A    between atoms: C_45  and  C_48
REMARK   18  A    between atoms: C_48  and  C_51
REMARK   19  A    between atoms: C_49  and  C_50
REMARK   20  A    between atoms: C_51  and  C_54
REMARK   21  A    between atoms: C_55  and  C_61
REMARK   22  A    between atoms: C_57  and  C_58
REMARK   23  A    between atoms: C_57  and  C_59
REMARK   24  A    between atoms: C_59  and  C_60
REMARK   25  A    between atoms: C_60  and  C_62
REMARK   26  A    between atoms: C_63  and  C_66
REMARK   27  A    between atoms: C_68  and  C_70
REMARK                            x       y       z     vdW  Elec       q    Type
REMARK                         _______ _______ _______ _____ _____    ______ ____
ROOT
ATOM      1  O   UNL     1       1.280  -0.042   0.000  0.00  0.00    +0.000 OA
ATOM      2  O   UNL     1       0.382   0.005   0.000  0.00  0.00    +0.000 OA
ATOM      3  O   UNL     1      -0.624   2.266   0.000  0.00  0.00    +0.000 OA
ATOM      4  C   UNL     1       0.867   0.672   0.000  0.00  0.00    +0.000 C 
ATOM      5  C   UNL     1       1.419   1.285   0.000  0.00  0.00    +0.000 C 
ATOM      6  C   UNL     1       2.173   0.950   0.000  0.00  0.00    +0.000 C 
ATOM      7  C   UNL     1       2.087   0.129   0.000  0.00  0.00    +0.000 C 
ATOM      8  C   UNL     1       0.532   1.426   0.000  0.00  0.00    +0.000 C 
ATOM      9  C   UNL     1      -0.438   0.091   0.000  0.00  0.00    +0.000 C 
ATOM     10  C   UNL     1      -0.289   1.512   0.000  0.00  0.00    +0.000 C 
ATOM     11  C   UNL     1       0.874   1.904   0.000  0.00  0.00    +0.000 C 
ATOM     12  C   UNL     1       1.666   2.072   0.000  0.00  0.00    +0.000 C 
ATOM     13  C   UNL     1      -0.774   0.845   0.000  0.00  0.00    +0.000 C 
ATOM     14  C   UNL     1      -1.594   0.931   0.000  0.00  0.00    +0.000 C 
ENDROOT
BRANCH   9  15
ATOM     15  C   UNL     1      -0.923  -0.576   0.000  0.00  0.00    +0.000 C 
BRANCH  15  16
ATOM     16  C   UNL     1      -1.744  -0.490   0.000  0.00  0.00    +0.000 C 
ATOM     17  C   UNL     1      -2.228  -1.157   0.000  0.00  0.00    +0.000 C 
BRANCH  17  20
ATOM     18  O   UNL     1      -4.268  -0.528   0.000  0.00  0.00    +0.000 OA
ATOM     19  N   UNL     1      -3.601  -1.684   0.000  0.00  0.00    +0.000 NA
ATOM     20  C   UNL     1      -3.049  -1.071   0.000  0.00  0.00    +0.000 A 
ATOM     21  C   UNL     1      -3.461  -0.357   0.000  0.00  0.00    +0.000 A 
ATOM     22  C   UNL     1      -4.355  -1.349   0.000  0.00  0.00    +0.000 A 
BRANCH  22  23
ATOM     23  C   UNL     1      -5.069  -1.761   0.000  0.00  0.00    +0.000 C 
ATOM     24  C   UNL     1      -5.069  -2.586   0.000  0.00  0.00    +0.000 C 
BRANCH  23  25
ATOM     25  C   UNL     1      -5.784  -1.349   0.000  0.00  0.00    +0.000 C 
BRANCH  25  26
ATOM     26  C   UNL     1      -6.498  -1.761   0.000  0.00  0.00    +0.000 C 
BRANCH  26  28
ATOM     27  O   UNL     1      -7.927  -2.586   0.000  0.00  0.00    +0.000 OA
ATOM     28  N   UNL     1      -7.213  -1.349   0.000  0.00  0.00    +0.000 NA
ATOM     29  C   UNL     1      -7.927  -1.761   0.000  0.00  0.00    +0.000 C 
BRANCH  29  31
ATOM     30  O   UNL     1      -8.641  -0.524   0.000  0.00  0.00    +0.000 OA
ATOM     31  C   UNL     1      -8.641  -1.349   0.000  0.00  0.00    +0.000 C 
BRANCH  31  33
ATOM     32  O   UNL     1      -9.356  -2.586   0.000  0.00  0.00    +0.000 OA
ATOM     33  C   UNL     1      -9.356  -1.761   0.000  0.00  0.00    +0.000 C 
BRANCH  33  34
ATOM     34  C   UNL     1     -10.070  -1.349   0.000  0.00  0.00    +0.000 C 
BRANCH  34  35
ATOM     35  N   UNL     1     -10.070  -0.524   0.000  0.00  0.00    +0.000 NA
ATOM     36  C   UNL     1     -10.785  -0.111   0.000  0.00  0.00    +0.000 C 
ATOM     37  C   UNL     1      -9.356  -0.111   0.000  0.00  0.00    +0.000 C 
ENDBRANCH  34  35
BRANCH  34  38
ATOM     38  C   UNL     1     -10.785  -1.761   0.000  0.00  0.00    +0.000 C 
BRANCH  38  39
ATOM     39  O   UNL     1     -11.499  -1.349   0.000  0.00  0.00    +0.000 OA
ATOM     40  C   UNL     1     -12.214  -1.761   0.000  0.00  0.00    +0.000 C 
ENDBRANCH  38  39
ENDBRANCH  34  38
ENDBRANCH  33  34
ENDBRANCH  31  33
ENDBRANCH  29  31
ENDBRANCH  26  28
ENDBRANCH  25  26
ENDBRANCH  23  25
ENDBRANCH  22  23
ENDBRANCH  17  20
ENDBRANCH  15  16
ENDBRANCH   9  15
BRANCH   7  41
ATOM     41  C   UNL     1       2.700  -0.423   0.000  0.00  0.00    +0.000 C 
BRANCH  41  42
ATOM     42  O   UNL     1       2.528  -1.230   0.000  0.00  0.00    +0.000 OA
ATOM     43  C   UNL     1       1.744  -1.485   0.000  0.00  0.00    +0.000 C 
ENDBRANCH  41  42
BRANCH  41  44
ATOM     44  C   UNL     1       3.485  -0.168   0.000  0.00  0.00    +0.000 C 
BRANCH  44  46
ATOM     45  O   UNL     1       3.926  -1.527   0.000  0.00  0.00    +0.000 OA
ATOM     46  C   UNL     1       4.098  -0.720   0.000  0.00  0.00    +0.000 C 
BRANCH  46  47
ATOM     47  C   UNL     1       4.882  -0.465   0.000  0.00  0.00    +0.000 C 
ATOM     48  C   UNL     1       5.054   0.342   0.000  0.00  0.00    +0.000 C 
BRANCH  47  50
ATOM     49  O   UNL     1       5.324  -1.824   0.000  0.00  0.00    +0.000 OA
ATOM     50  C   UNL     1       5.495  -1.017   0.000  0.00  0.00    +0.000 C 
BRANCH  50  51
ATOM     51  C   UNL     1       6.280  -0.762   0.000  0.00  0.00    +0.000 C 
ATOM     52  C   UNL     1       6.451   0.045   0.000  0.00  0.00    +0.000 C 
BRANCH  51  53
ATOM     53  C   UNL     1       6.893  -1.314   0.000  0.00  0.00    +0.000 C 
ATOM     54  C   UNL     1       7.678  -1.059   0.000  0.00  0.00    +0.000 C 
ATOM     55  C   UNL     1       7.849  -0.252   0.000  0.00  0.00    +0.000 C 
BRANCH  54  56
ATOM     56  C   UNL     1       8.291  -1.611   0.000  0.00  0.00    +0.000 C 
ATOM     57  C   UNL     1       9.075  -1.356   0.000  0.00  0.00    +0.000 C 
ATOM     58  C   UNL     1       8.119  -2.418   0.000  0.00  0.00    +0.000 C 
BRANCH  57  59
ATOM     59  C   UNL     1       9.688  -1.908   0.000  0.00  0.00    +0.000 C 
ATOM     60  C   UNL     1      10.473  -1.653   0.000  0.00  0.00    +0.000 C 
BRANCH  60  61
ATOM     61  C   UNL     1      11.086  -2.205   0.000  0.00  0.00    +0.000 C 
ATOM     62  C   UNL     1      11.871  -1.950   0.000  0.00  0.00    +0.000 C 
ATOM     63  C   UNL     1      10.915  -3.012   0.000  0.00  0.00    +0.000 C 
BRANCH  62  65
ATOM     64  N   UNL     1      12.214  -0.336   0.000  0.00  0.00    +0.000 NA
ATOM     65  C   UNL     1      12.042  -1.143   0.000  0.00  0.00    +0.000 C 
ENDBRANCH  62  65
ENDBRANCH  60  61
ENDBRANCH  57  59
ENDBRANCH  54  56
ENDBRANCH  51  53
ENDBRANCH  50  51
ENDBRANCH  47  50
ENDBRANCH  46  47
ENDBRANCH  44  46
ENDBRANCH  41  44
ENDBRANCH   7  41
BRANCH   6  66
ATOM     66  O   UNL     1       2.888   1.362   0.000  0.00  0.00    +0.000 OA
BRANCH  66  67
ATOM     67  P   UNL     1       2.888   2.187   0.000  0.00  0.00    +0.000 P 
ATOM     68  O   UNL     1       2.888   3.012   0.000  0.00  0.00    +0.000 OA
ATOM     69  O   UNL     1       3.712   2.187   0.000  0.00  0.00    +0.000 OA
ATOM     70  O   UNL     1       2.062   2.187   0.000  0.00  0.00    +0.000 OA
ENDBRANCH  66  67
ENDBRANCH   6  66
TORSDOF 27
