REMARK  Name = 
REMARK  5 active torsions:
REMARK  status: ('A' for Active; 'I' for Inactive)
REMARK    1  A    between atoms: C_3  and  C_12
REMARK    2  A    between atoms: C_6  and  O_25
REMARK    3  A    between atoms: C_12  and  O_13
REMARK    4  A    between atoms: O_13  and  C_14
REMARK    5  A    between atoms: C_17  and  N_20
REMARK                            x       y       z     vdW  Elec       q    Type
REMARK                         _______ _______ _______ _____ _____    ______ ____
ROOT
ATOM      1  N   UNL     1      -1.056  -2.751   0.000  0.00  0.00    +0.000 N 
ATOM      2  C   UNL     1      -1.541  -2.083   0.000  0.00  0.00    +0.000 A 
ATOM      3  C   UNL     1      -1.056  -1.416   0.000  0.00  0.00    +0.000 A 
ATOM      4  C   UNL     1      -0.272  -1.671   0.000  0.00  0.00    +0.000 A 
ATOM      5  C   UNL     1       0.443  -1.258   0.000  0.00  0.00    +0.000 C 
ATOM      6  C   UNL     1       1.157  -1.671   0.000  0.00  0.00    +0.000 C 
ATOM      7  C   UNL     1       1.157  -2.496   0.000  0.00  0.00    +0.000 C 
ATOM      8  C   UNL     1       0.443  -2.908   0.000  0.00  0.00    +0.000 C 
ATOM      9  C   UNL     1      -0.272  -2.496   0.000  0.00  0.00    +0.000 A 
ATOM     10  O   UNL     1       0.443  -0.433   0.000  0.00  0.00    +0.000 OA
ATOM     11  O   UNL     1       0.443  -3.733   0.000  0.00  0.00    +0.000 OA
ATOM     12  C   UNL     1      -2.366  -2.083   0.000  0.00  0.00    +0.000 C 
ATOM     13  C   UNL     1      -1.311  -3.535   0.000  0.00  0.00    +0.000 C 
ENDROOT
BRANCH   6  14
ATOM     14  O   UNL     1       1.872  -1.258   0.000  0.00  0.00    +0.000 OA
ATOM     15  C   UNL     1       2.586  -1.671   0.000  0.00  0.00    +0.000 C 
ENDBRANCH   6  14
BRANCH   3  16
ATOM     16  C   UNL     1      -1.311  -0.631   0.000  0.00  0.00    +0.000 C 
BRANCH  16  17
ATOM     17  O   UNL     1      -0.759  -0.018   0.000  0.00  0.00    +0.000 OA
BRANCH  17  18
ATOM     18  C   UNL     1      -1.014   0.766   0.000  0.00  0.00    +0.000 A 
ATOM     19  C   UNL     1      -1.821   0.938   0.000  0.00  0.00    +0.000 A 
ATOM     20  C   UNL     1      -2.076   1.722   0.000  0.00  0.00    +0.000 A 
ATOM     21  C   UNL     1      -1.524   2.336   0.000  0.00  0.00    +0.000 A 
ATOM     22  C   UNL     1      -0.717   2.164   0.000  0.00  0.00    +0.000 A 
ATOM     23  C   UNL     1      -0.462   1.379   0.000  0.00  0.00    +0.000 A 
BRANCH  21  24
ATOM     24  N   UNL     1      -1.779   3.120   0.000  0.00  0.00    +0.000 N 
ATOM     25  O   UNL     1      -1.227   3.733   0.000  0.00  0.00    +0.000 OA
ATOM     26  O   UNL     1      -2.586   3.292   0.000  0.00  0.00    +0.000 OA
ENDBRANCH  21  24
ENDBRANCH  17  18
ENDBRANCH  16  17
ENDBRANCH   3  16
TORSDOF 5
