REMARK  Name = 
REMARK  9 active torsions:
REMARK  status: ('A' for Active; 'I' for Inactive)
REMARK    1  A    between atoms: C_6  and  C_7
REMARK    2  A    between atoms: N_8  and  C_9
REMARK    3  A    between atoms: C_18  and  O_24
REMARK    4  A    between atoms: C_20  and  N_26
REMARK    5  A    between atoms: C_21  and  N_23
REMARK    6  A    between atoms: N_26  and  C_27
REMARK    7  A    between atoms: C_27  and  C_29
REMARK    8  A    between atoms: C_29  and  N_30
REMARK    9  A    between atoms: C_32  and  C_33
REMARK                            x       y       z     vdW  Elec       q    Type
REMARK                         _______ _______ _______ _____ _____    ______ ____
ROOT
ATOM      1  C   UNL     1      -0.059  -1.173   0.000  0.00  0.00    +0.000 A 
ATOM      2  C   UNL     1       0.658  -1.587   0.000  0.00  0.00    +0.000 A 
ATOM      3  C   UNL     1       1.367  -1.173   0.000  0.00  0.00    +0.000 A 
ATOM      4  C   UNL     1       1.367  -0.346   0.000  0.00  0.00    +0.000 A 
ATOM      5  C   UNL     1       0.658   0.068   0.000  0.00  0.00    +0.000 A 
ATOM      6  C   UNL     1      -0.059  -0.346   0.000  0.00  0.00    +0.000 A 
ENDROOT
BRANCH   1  13
ATOM      7  C   UNL     1      -2.912  -0.346   0.000  0.00  0.00    +0.000 A 
ATOM      8  C   UNL     1      -2.912  -1.173   0.000  0.00  0.00    +0.000 A 
ATOM      9  N   UNL     1      -2.194  -1.587   0.000  0.00  0.00    +0.000 NA
ATOM     10  C   UNL     1      -1.485  -1.173   0.000  0.00  0.00    +0.000 A 
ATOM     11  N   UNL     1      -1.485  -0.346   0.000  0.00  0.00    +0.000 NA
ATOM     12  C   UNL     1      -2.194   0.068   0.000  0.00  0.00    +0.000 A 
ATOM     13  N   UNL     1      -0.768  -1.587   0.000  0.00  0.00    +0.000 NA
BRANCH  12  14
ATOM     14  C   UNL     1      -2.194   0.886   0.000  0.00  0.00    +0.000 A 
ATOM     15  C   UNL     1      -1.528   1.367   0.000  0.00  0.00    +0.000 A 
ATOM     16  N   UNL     1      -1.789   2.152   0.000  0.00  0.00    +0.000 N 
ATOM     17  C   UNL     1      -2.608   2.152   0.000  0.00  0.00    +0.000 A 
ATOM     18  C   UNL     1      -2.861   1.367   0.000  0.00  0.00    +0.000 A 
ATOM     19  C   UNL     1      -3.156   2.768   0.000  0.00  0.00    +0.000 A 
ATOM     20  C   UNL     1      -3.967   2.599   0.000  0.00  0.00    +0.000 A 
ATOM     21  C   UNL     1      -4.220   1.815   0.000  0.00  0.00    +0.000 A 
ATOM     22  C   UNL     1      -3.671   1.198   0.000  0.00  0.00    +0.000 A 
ATOM     23  C   UNL     1      -1.300   2.819   0.000  0.00  0.00    +0.000 C 
ENDBRANCH  12  14
ENDBRANCH   1  13
BRANCH   5  24
ATOM     24  N   UNL     1       0.658   0.886   0.000  0.00  0.00    +0.000 NA
ATOM     25  C   UNL     1      -0.059   1.300   0.000  0.00  0.00    +0.000 C 
ATOM     26  O   UNL     1      -0.768   0.886   0.000  0.00  0.00    +0.000 OA
BRANCH  25  27
ATOM     27  C   UNL     1      -0.059   2.127   0.000  0.00  0.00    +0.000 C 
ATOM     28  C   UNL     1       0.658   2.532   0.000  0.00  0.00    +0.000 C 
ENDBRANCH  25  27
ENDBRANCH   5  24
BRANCH   4  29
ATOM     29  N   UNL     1       2.084   0.068   0.000  0.00  0.00    +0.000 N 
ATOM     30  C   UNL     1       2.084   0.886   0.000  0.00  0.00    +0.000 C 
BRANCH  29  31
ATOM     31  C   UNL     1       2.793  -0.346   0.000  0.00  0.00    +0.000 C 
BRANCH  31  32
ATOM     32  C   UNL     1       2.793  -1.173   0.000  0.00  0.00    +0.000 C 
BRANCH  32  33
ATOM     33  N   UNL     1       3.511  -1.587   0.000  0.00  0.00    +0.000 NA
ATOM     34  C   UNL     1       3.511  -2.405   0.000  0.00  0.00    +0.000 C 
ATOM     35  C   UNL     1       4.220  -1.173   0.000  0.00  0.00    +0.000 C 
ENDBRANCH  32  33
ENDBRANCH  31  32
ENDBRANCH  29  31
ENDBRANCH   4  29
BRANCH   2  36
ATOM     36  O   UNL     1       0.658  -2.405   0.000  0.00  0.00    +0.000 OA
ATOM     37  C   UNL     1      -0.059  -2.819   0.000  0.00  0.00    +0.000 C 
ENDBRANCH   2  36
TORSDOF 9
