REMARK  Name = 
REMARK  0 active torsions:
REMARK  status: ('A' for Active; 'I' for Inactive)
REMARK                            x       y       z     vdW  Elec       q    Type
REMARK                         _______ _______ _______ _____ _____    ______ ____
ROOT
ATOM      1  C   UNL     1      -0.456   0.655   0.000  0.00  0.00    +0.000 C 
ATOM      2  C   UNL     1       0.256   0.238   0.000  0.00  0.00    +0.000 C 
ATOM      3  C   UNL     1      -0.831   1.386   0.000  0.00  0.00    +0.000 C 
ATOM      4  C   UNL     1      -1.185   0.238   0.000  0.00  0.00    +0.000 C 
ATOM      5  C   UNL     1       0.256  -0.586   0.000  0.00  0.00    +0.000 C 
ATOM      6  C   UNL     1       1.185   0.238   0.000  0.00  0.00    +0.000 C 
ATOM      7  C   UNL     1       0.725   1.048   0.000  0.00  0.00    +0.000 C 
ATOM      8  C   UNL     1      -0.460  -0.193   0.000  0.00  0.00    +0.000 C 
ATOM      9  C   UNL     1      -1.185  -0.586   0.000  0.00  0.00    +0.000 C 
ATOM     10  C   UNL     1       0.737  -1.386   0.000  0.00  0.00    +0.000 C 
ENDROOT
TORSDOF 0
