REMARK  Name = 
REMARK  0 active torsions:
REMARK  status: ('A' for Active; 'I' for Inactive)
REMARK                            x       y       z     vdW  Elec       q    Type
REMARK                         _______ _______ _______ _____ _____    ______ ____
ROOT
ATOM      1 CA   UNL     1      -0.082   0.004   0.000  0.00  0.00    +0.000 Ca
ATOM      2  F   UNL     1      -0.825  -0.004   0.000  0.00  0.00    +0.000 F 
ATOM      3  F   UNL     1       0.825  -0.004   0.000  0.00  0.00    +0.000 F 
ENDROOT
TORSDOF 0
