REMARK  Name = 
REMARK  3 active torsions:
REMARK  status: ('A' for Active; 'I' for Inactive)
REMARK    1  A    between atoms: C_7  and  C_17
REMARK    2  A    between atoms: C_17  and  C_25
REMARK    3  A    between atoms: C_25  and  C_26
REMARK                            x       y       z     vdW  Elec       q    Type
REMARK                         _______ _______ _______ _____ _____    ______ ____
ROOT
ATOM      1  O   UNL     1       3.255  -0.181   0.000  0.00  0.00    +0.000 OA
ATOM      2  O   UNL     1      -3.255  -1.171   0.000  0.00  0.00    +0.000 OA
ATOM      3  C   UNL     1       1.618  -0.300   0.000  0.00  0.00    +0.000 C 
ATOM      4  C   UNL     1       1.338  -1.076   0.000  0.00  0.00    +0.000 C 
ATOM      5  C   UNL     1       2.443  -0.327   0.000  0.00  0.00    +0.000 C 
ATOM      6  C   UNL     1       0.526  -1.221   0.000  0.00  0.00    +0.000 C 
ATOM      7  C   UNL     1      -0.006  -0.590   0.000  0.00  0.00    +0.000 C 
ATOM      8  C   UNL     1      -0.818  -0.735   0.000  0.00  0.00    +0.000 C 
ATOM      9  C   UNL     1       1.086   0.331   0.000  0.00  0.00    +0.000 C 
ATOM     10  C   UNL     1       1.989  -1.582   0.000  0.00  0.00    +0.000 C 
ATOM     11  C   UNL     1       2.672  -1.119   0.000  0.00  0.00    +0.000 C 
ATOM     12  C   UNL     1      -1.099  -1.511   0.000  0.00  0.00    +0.000 C 
ATOM     13  C   UNL     1       0.274   0.186   0.000  0.00  0.00    +0.000 C 
ATOM     14  C   UNL     1       0.245  -1.997   0.000  0.00  0.00    +0.000 C 
ATOM     15  C   UNL     1       1.978   0.443   0.000  0.00  0.00    +0.000 C 
ATOM     16  C   UNL     1      -0.567  -2.142   0.000  0.00  0.00    +0.000 C 
ATOM     17  C   UNL     1      -1.350  -0.105   0.000  0.00  0.00    +0.000 C 
ATOM     18  C   UNL     1      -1.911  -1.657   0.000  0.00  0.00    +0.000 C 
ATOM     19  C   UNL     1      -0.538   0.041   0.000  0.00  0.00    +0.000 C 
ATOM     20  C   UNL     1      -2.442  -1.026   0.000  0.00  0.00    +0.000 C 
ATOM     21  C   UNL     1      -2.162  -0.250   0.000  0.00  0.00    +0.000 C 
ENDROOT
BRANCH   5  22
ATOM     22  C   UNL     1       2.383   0.496   0.000  0.00  0.00    +0.000 C 
BRANCH  22  23
ATOM     23  C   UNL     1       1.641   0.856   0.000  0.00  0.00    +0.000 C 
BRANCH  23  26
ATOM     24  O   UNL     1       0.839   2.039   0.000  0.00  0.00    +0.000 OA
ATOM     25  O   UNL     1       2.264   2.142   0.000  0.00  0.00    +0.000 OA
ATOM     26  C   UNL     1       1.581   1.679   0.000  0.00  0.00    +0.000 C 
ENDBRANCH  23  26
ENDBRANCH  22  23
ENDBRANCH   5  22
TORSDOF 3
