REMARK  Name = 
REMARK  3 active torsions:
REMARK  status: ('A' for Active; 'I' for Inactive)
REMARK    1  A    between atoms: O_2  and  C_3
REMARK    2  A    between atoms: C_5  and  C_12
REMARK    3  A    between atoms: C_7  and  O_10
REMARK                            x       y       z     vdW  Elec       q    Type
REMARK                         _______ _______ _______ _____ _____    ______ ____
ROOT
ATOM      1  C   UNL     1       0.715   1.238   0.000  0.00  0.00    +0.000 A 
ATOM      2  C   UNL     1       1.429   0.825   0.000  0.00  0.00    +0.000 A 
ATOM      3  C   UNL     1       1.429   0.000   0.000  0.00  0.00    +0.000 A 
ATOM      4  N   UNL     1       0.715  -0.412   0.000  0.00  0.00    +0.000 NA
ATOM      5  C   UNL     1       0.000   0.000   0.000  0.00  0.00    +0.000 A 
ATOM      6  C   UNL     1       0.000   0.825   0.000  0.00  0.00    +0.000 A 
ATOM      7 CL   UNL     1      -0.715   1.238   0.000  0.00  0.00    +0.000 Cl
ATOM      8 CL   UNL     1       2.143   1.238   0.000  0.00  0.00    +0.000 Cl
ENDROOT
BRANCH   3   9
ATOM      9  C   UNL     1       2.143  -0.412   0.000  0.00  0.00    +0.000 C 
ATOM     10 CL   UNL     1       2.858  -0.825   0.000  0.00  0.00    +0.000 Cl
ATOM     11 CL   UNL     1       1.731  -1.127   0.000  0.00  0.00    +0.000 Cl
ATOM     12 CL   UNL     1       2.556   0.302   0.000  0.00  0.00    +0.000 Cl
ENDBRANCH   3   9
BRANCH   1  14
ATOM     13  C   UNL     1       1.429   2.475   0.000  0.00  0.00    +0.000 C 
ATOM     14  O   UNL     1       0.715   2.062   0.000  0.00  0.00    +0.000 OA
ENDBRANCH   1  14
BRANCH   5  15
ATOM     15  O   UNL     1      -0.715  -0.412   0.000  0.00  0.00    +0.000 OA
ATOM     16  C   UNL     1      -0.715  -1.238   0.000  0.00  0.00    +0.000 C 
ENDBRANCH   5  15
TORSDOF 3
