REMARK  Name = 
REMARK  2 active torsions:
REMARK  status: ('A' for Active; 'I' for Inactive)
REMARK    1  A    between atoms: C_7  and  C_15
REMARK    2  A    between atoms: C_11  and  C_16
REMARK                            x       y       z     vdW  Elec       q    Type
REMARK                         _______ _______ _______ _____ _____    ______ ____
ROOT
ATOM      1  O   UNL     1       1.311   0.360   0.000  0.00  0.00    +0.000 OA
ATOM      2  O   UNL     1      -2.987   0.615   0.000  0.00  0.00    +0.000 OA
ATOM      3  C   UNL     1      -0.440  -0.067   0.000  0.00  0.00    +0.000 C 
ATOM      4  C   UNL     1      -0.834   1.540   0.000  0.00  0.00    +0.000 C 
ATOM      5  C   UNL     1      -0.227   0.729   0.000  0.00  0.00    +0.000 C 
ATOM      6  C   UNL     1       0.966  -0.929   0.000  0.00  0.00    +0.000 C 
ATOM      7  C   UNL     1       1.607  -0.410   0.000  0.00  0.00    +0.000 C 
ATOM      8  C   UNL     1      -2.374   0.063   0.000  0.00  0.00    +0.000 C 
ATOM      9  C   UNL     1      -1.707  -1.093   0.000  0.00  0.00    +0.000 C 
ATOM     10  C   UNL     1      -2.460  -0.757   0.000  0.00  0.00    +0.000 C 
ENDROOT
BRANCH   3  13
ATOM     11  O   UNL     1      -0.070  -1.448   0.000  0.00  0.00    +0.000 OA
ATOM     12  O   UNL     1      -1.127  -1.540   0.000  0.00  0.00    +0.000 OA
ATOM     13  C   UNL     1      -0.654  -0.864   0.000  0.00  0.00    +0.000 C 
ENDBRANCH   3  13
BRANCH   7  16
ATOM     14  O   UNL     1       2.987  -0.040   0.000  0.00  0.00    +0.000 OA
ATOM     15  O   UNL     1       2.617  -1.420   0.000  0.00  0.00    +0.000 OA
ATOM     16  C   UNL     1       2.404  -0.624   0.000  0.00  0.00    +0.000 C 
ENDBRANCH   7  16
TORSDOF 2
