REMARK  Name = 
REMARK  6 active torsions:
REMARK  status: ('A' for Active; 'I' for Inactive)
REMARK    1  A    between atoms: C_12  and  C_19
REMARK    2  A    between atoms: C_13  and  C_20
REMARK    3  A    between atoms: C_17  and  O_26
REMARK    4  A    between atoms: C_18  and  O_27
REMARK    5  A    between atoms: C_19  and  O_26
REMARK    6  A    between atoms: C_20  and  O_27
REMARK                            x       y       z     vdW  Elec       q    Type
REMARK                         _______ _______ _______ _____ _____    ______ ____
ROOT
ATOM      1  C   UNL     1      -1.429   2.681   0.000  0.00  0.00    +0.000 A 
ATOM      2  C   UNL     1      -2.143   2.269   0.000  0.00  0.00    +0.000 A 
ATOM      3  C   UNL     1      -0.714   2.269   0.000  0.00  0.00    +0.000 A 
ATOM      4  C   UNL     1      -2.143   1.444   0.000  0.00  0.00    +0.000 A 
ATOM      5  C   UNL     1      -0.714   1.444   0.000  0.00  0.00    +0.000 A 
ATOM      6  C   UNL     1      -1.429   1.031   0.000  0.00  0.00    +0.000 A 
ATOM      7  F   UNL     1      -2.858   1.031   0.000  0.00  0.00    +0.000 F 
ENDROOT
BRANCH   5   8
ATOM      8  O   UNL     1       0.000   1.031   0.000  0.00  0.00    +0.000 OA
BRANCH   8   9
ATOM      9  C   UNL     1       0.714   1.444   0.000  0.00  0.00    +0.000 C 
ATOM     10  O   UNL     1       0.714   2.269   0.000  0.00  0.00    +0.000 OA
BRANCH   9  15
ATOM     11  C   UNL     1       2.858   1.031   0.000  0.00  0.00    +0.000 A 
ATOM     12  C   UNL     1       2.143   1.444   0.000  0.00  0.00    +0.000 A 
ATOM     13  C   UNL     1       2.858   0.206   0.000  0.00  0.00    +0.000 A 
ATOM     14  C   UNL     1       1.429   0.206   0.000  0.00  0.00    +0.000 A 
ATOM     15  C   UNL     1       1.429   1.031   0.000  0.00  0.00    +0.000 A 
ATOM     16  C   UNL     1       2.143  -0.206   0.000  0.00  0.00    +0.000 A 
ATOM     17  O   UNL     1       2.143  -1.031   0.000  0.00  0.00    +0.000 OA
ENDBRANCH   9  15
ENDBRANCH   8   9
ENDBRANCH   5   8
BRANCH   6  18
ATOM     18  O   UNL     1      -1.429   0.206   0.000  0.00  0.00    +0.000 OA
BRANCH  18  19
ATOM     19  C   UNL     1      -0.714  -0.206   0.000  0.00  0.00    +0.000 C 
ATOM     20  O   UNL     1       0.000   0.206   0.000  0.00  0.00    +0.000 OA
BRANCH  19  25
ATOM     21  C   UNL     1       0.000  -2.269   0.000  0.00  0.00    +0.000 A 
ATOM     22  C   UNL     1       0.000  -1.444   0.000  0.00  0.00    +0.000 A 
ATOM     23  C   UNL     1      -0.714  -2.681   0.000  0.00  0.00    +0.000 A 
ATOM     24  C   UNL     1      -1.429  -1.444   0.000  0.00  0.00    +0.000 A 
ATOM     25  C   UNL     1      -0.714  -1.031   0.000  0.00  0.00    +0.000 A 
ATOM     26  C   UNL     1      -1.429  -2.269   0.000  0.00  0.00    +0.000 A 
ATOM     27  O   UNL     1      -2.143  -2.681   0.000  0.00  0.00    +0.000 OA
ENDBRANCH  19  25
ENDBRANCH  18  19
ENDBRANCH   6  18
TORSDOF 6
