REMARK  Name = 
REMARK  11 active torsions:
REMARK  status: ('A' for Active; 'I' for Inactive)
REMARK    1  A    between atoms: C_2  and  O_4
REMARK    2  A    between atoms: O_4  and  C_5
REMARK    3  A    between atoms: C_5  and  C_7
REMARK    4  A    between atoms: C_7  and  N_9
REMARK    5  A    between atoms: N_9  and  P_10
REMARK    6  A    between atoms: P_10  and  O_12
REMARK    7  A    between atoms: P_10  and  O_30
REMARK    8  A    between atoms: O_12  and  C_13
REMARK    9  A    between atoms: C_13  and  C_14
REMARK   10  A    between atoms: C_16  and  N_17
REMARK   11  A    between atoms: O_30  and  C_31
REMARK                            x       y       z     vdW  Elec       q    Type
REMARK                         _______ _______ _______ _____ _____    ______ ____
ROOT
ATOM      1  P   UNL     1       5.483  -2.653   0.000  0.00  0.00    +0.000 P 
ATOM      2  O   UNL     1       4.730  -2.317   0.000  0.00  0.00    +0.000 OA
ENDROOT
BRANCH   1   3
ATOM      3  N   UNL     1       5.819  -1.899   0.000  0.00  0.00    +0.000 NA
BRANCH   3   4
ATOM      4  C   UNL     1       5.334  -1.232   0.000  0.00  0.00    +0.000 C 
ATOM      5  C   UNL     1       4.513  -1.318   0.000  0.00  0.00    +0.000 C 
BRANCH   4   6
ATOM      6  C   UNL     1       5.670  -0.478   0.000  0.00  0.00    +0.000 C 
ATOM      7  O   UNL     1       6.490  -0.392   0.000  0.00  0.00    +0.000 OA
BRANCH   6   8
ATOM      8  O   UNL     1       5.185   0.189   0.000  0.00  0.00    +0.000 OA
BRANCH   8  10
ATOM      9  C   UNL     1       5.035   1.610   0.000  0.00  0.00    +0.000 C 
ATOM     10  C   UNL     1       5.520   0.943   0.000  0.00  0.00    +0.000 C 
ATOM     11  C   UNL     1       6.341   1.029   0.000  0.00  0.00    +0.000 C 
ENDBRANCH   8  10
ENDBRANCH   6   8
ENDBRANCH   4   6
ENDBRANCH   3   4
ENDBRANCH   1   3
BRANCH   1  12
ATOM     12  O   UNL     1       6.237  -2.989   0.000  0.00  0.00    +0.000 OA
BRANCH  12  13
ATOM     13  C   UNL     1       6.323  -3.809   0.000  0.00  0.00    +0.000 A 
ATOM     14  C   UNL     1       7.077  -4.145   0.000  0.00  0.00    +0.000 A 
ATOM     15  C   UNL     1       7.163  -4.965   0.000  0.00  0.00    +0.000 A 
ATOM     16  C   UNL     1       6.496  -5.450   0.000  0.00  0.00    +0.000 A 
ATOM     17  C   UNL     1       5.742  -5.114   0.000  0.00  0.00    +0.000 A 
ATOM     18  C   UNL     1       5.656  -4.294   0.000  0.00  0.00    +0.000 A 
ENDBRANCH  12  13
ENDBRANCH   1  12
BRANCH   1  19
ATOM     19  O   UNL     1       5.148  -3.407   0.000  0.00  0.00    +0.000 OA
BRANCH  19  20
ATOM     20  C   UNL     1       4.327  -3.493   0.000  0.00  0.00    +0.000 C 
BRANCH  20  21
ATOM     21  C   UNL     1       3.842  -2.825   0.000  0.00  0.00    +0.000 C 
ATOM     22  O   UNL     1       3.017  -2.825   0.000  0.00  0.00    +0.000 OA
ATOM     23  C   UNL     1       2.762  -2.041   0.000  0.00  0.00    +0.000 C 
ATOM     24  C   UNL     1       3.430  -1.556   0.000  0.00  0.00    +0.000 C 
ATOM     25  C   UNL     1       2.878  -0.943   0.000  0.00  0.00    +0.000 C 
ATOM     26 CL   UNL     1       3.982  -0.943   0.000  0.00  0.00    +0.000 Cl
ATOM     27  C   UNL     1       4.097  -2.041   0.000  0.00  0.00    +0.000 C 
ATOM     28  O   UNL     1       4.882  -1.786   0.000  0.00  0.00    +0.000 OA
BRANCH  23  29
ATOM     29  N   UNL     1       1.978  -1.786   0.000  0.00  0.00    +0.000 N 
ATOM     30  C   UNL     1       1.365  -2.338   0.000  0.00  0.00    +0.000 A 
ATOM     31  C   UNL     1       0.580  -2.083   0.000  0.00  0.00    +0.000 A 
ATOM     32  C   UNL     1       0.408  -1.276   0.000  0.00  0.00    +0.000 A 
ATOM     33  O   UNL     1      -0.376  -1.021   0.000  0.00  0.00    +0.000 OA
ATOM     34  N   UNL     1       1.022  -0.724   0.000  0.00  0.00    +0.000 NA
ATOM     35  C   UNL     1       1.806  -0.979   0.000  0.00  0.00    +0.000 A 
ATOM     36  O   UNL     1       2.419  -0.427   0.000  0.00  0.00    +0.000 OA
ENDBRANCH  23  29
ENDBRANCH  20  21
ENDBRANCH  19  20
ENDBRANCH   1  19
TORSDOF 11
