REMARK  Name = 
REMARK  0 active torsions:
REMARK  status: ('A' for Active; 'I' for Inactive)
REMARK                            x       y       z     vdW  Elec       q    Type
REMARK                         _______ _______ _______ _____ _____    ______ ____
ROOT
ATOM      1  I   UNL     1      -0.950  -0.187   0.000  0.00  0.00    +0.000 I 
ATOM      2  O   UNL     1      -0.964   0.751   0.000  0.00  0.00    +0.000 OA
ATOM      3  O   UNL     1      -1.552  -0.751   0.000  0.00  0.00    +0.000 OA
ATOM      4  O   UNL     1      -0.134  -0.187   0.000  0.00  0.00    +0.000 OA
ENDROOT
TORSDOF 0
REMARK  Name = 
REMARK  0 active torsions:
REMARK  status: ('A' for Active; 'I' for Inactive)
REMARK                            x       y       z     vdW  Elec       q    Type
REMARK                         _______ _______ _______ _____ _____    ______ ____
ROOT
ATOM      1  K   UNL     1       1.552  -0.136   0.000  0.00  0.00    +0.000 K 
ENDROOT
TORSDOF 0
