REMARK  Name = 
REMARK  0 active torsions:
REMARK  status: ('A' for Active; 'I' for Inactive)
REMARK                            x       y       z     vdW  Elec       q    Type
REMARK                         _______ _______ _______ _____ _____    ______ ____
ROOT
ATOM      1  K   UNL     1      -0.701  -1.030   0.000  0.00  0.00    +0.000 K 
ENDROOT
TORSDOF 0
REMARK  Name = 
REMARK  0 active torsions:
REMARK  status: ('A' for Active; 'I' for Inactive)
REMARK                            x       y       z     vdW  Elec       q    Type
REMARK                         _______ _______ _______ _____ _____    ______ ____
ROOT
ATOM      1  O   UNL     1      -0.701  -0.205   0.000  0.00  0.00    +0.000 OA
ATOM      2  C   UNL     1       0.041   0.205   0.000  0.00  0.00    +0.000 C 
ATOM      3  C   UNL     1       0.041   1.030   0.000  0.00  0.00    +0.000 C 
ATOM      4  O   UNL     1       0.701  -0.205   0.000  0.00  0.00    +0.000 OA
ENDROOT
TORSDOF 0
