REMARK  Name = 
REMARK  4 active torsions:
REMARK  status: ('A' for Active; 'I' for Inactive)
REMARK    1  A    between atoms: C_4  and  C_7
REMARK    2  A    between atoms: C_10  and  C_13
REMARK    3  A    between atoms: C_13  and  C_14
REMARK    4  A    between atoms: N_16  and  C_17
REMARK                            x       y       z     vdW  Elec       q    Type
REMARK                         _______ _______ _______ _____ _____    ______ ____
ROOT
ATOM      1  C   UNL     1       5.001  -2.888   0.000  0.00  0.00    +0.000 A 
ATOM      2  C   UNL     1       4.287  -2.475   0.000  0.00  0.00    +0.000 A 
ATOM      3  C   UNL     1       4.287  -1.650   0.000  0.00  0.00    +0.000 A 
ATOM      4  C   UNL     1       5.001  -1.238   0.000  0.00  0.00    +0.000 A 
ATOM      5  C   UNL     1       5.716  -1.650   0.000  0.00  0.00    +0.000 A 
ATOM      6  C   UNL     1       5.716  -2.475   0.000  0.00  0.00    +0.000 A 
ENDROOT
BRANCH   1  10
ATOM      7  C   UNL     1       5.001  -5.362   0.000  0.00  0.00    +0.000 A 
ATOM      8  C   UNL     1       4.287  -4.950   0.000  0.00  0.00    +0.000 A 
ATOM      9  C   UNL     1       4.287  -4.125   0.000  0.00  0.00    +0.000 A 
ATOM     10  C   UNL     1       5.001  -3.712   0.000  0.00  0.00    +0.000 A 
ATOM     11  C   UNL     1       5.716  -4.125   0.000  0.00  0.00    +0.000 A 
ATOM     12  C   UNL     1       5.716  -4.950   0.000  0.00  0.00    +0.000 A 
ENDBRANCH   1  10
BRANCH   4  13
ATOM     13  C   UNL     1       5.001  -0.412   0.000  0.00  0.00    +0.000 C 
BRANCH  13  14
ATOM     14  C   UNL     1       5.716   0.000   0.000  0.00  0.00    +0.000 C 
ATOM     15  O   UNL     1       6.430  -0.412   0.000  0.00  0.00    +0.000 OA
ATOM     16  N   UNL     1       5.716   0.825   0.000  0.00  0.00    +0.000 NA
BRANCH  16  17
ATOM     17  C   UNL     1       6.430   1.238   0.000  0.00  0.00    +0.000 A 
ATOM     18  C   UNL     1       6.430   2.062   0.000  0.00  0.00    +0.000 A 
ATOM     19  C   UNL     1       7.145   2.475   0.000  0.00  0.00    +0.000 A 
ATOM     20  C   UNL     1       7.859   2.062   0.000  0.00  0.00    +0.000 A 
ATOM     21  C   UNL     1       7.859   1.238   0.000  0.00  0.00    +0.000 A 
ATOM     22  N   UNL     1       7.145   0.825   0.000  0.00  0.00    +0.000 NA
ENDBRANCH  16  17
ENDBRANCH  13  14
ENDBRANCH   4  13
TORSDOF 4
