REMARK  Name = 
REMARK  9 active torsions:
REMARK  status: ('A' for Active; 'I' for Inactive)
REMARK    1  A    between atoms: P_1  and  O3*_4
REMARK    2  A    between atoms: P_1  and  O5*_5
REMARK    3  A    between atoms: O3*_4  and  C3*_19
REMARK    4  A    between atoms: O5*_5  and  C5*_27
REMARK    5  A    between atoms: N9_11  and  C1*_25
REMARK    6  A    between atoms: N1_12  and  C1*_26
REMARK    7  A    between atoms: N6_17  and  C6_35
REMARK    8  A    between atoms: C4*_20  and  C5*_27
REMARK    9  A    between atoms: C4*_22  and  C5*_28
REMARK                            x       y       z     vdW  Elec       q    Type
REMARK                         _______ _______ _______ _____ _____    ______ ____
ROOT
ATOM      1  P     A A   2      -1.257   1.620   0.000  0.00  0.00    +0.000 P 
ATOM      2  O1P   A A   2      -0.471   1.873   0.000  0.00  0.00    +0.000 OA
ATOM      3  O2P   A A   2      -2.042   1.366   0.000  0.00  0.00    +0.000 OA
ENDROOT
BRANCH   1   4
ATOM      4  O5*   A A   2      -1.003   0.835   0.000  0.00  0.00    +0.000 OA
BRANCH   4   5
ATOM      5  C5*   A A   2      -1.556   0.223   0.000  0.00  0.00    +0.000 C 
BRANCH   5   8
ATOM      6  O4*   A A   2      -1.789  -1.229   0.000  0.00  0.00    +0.000 OA
ATOM      7  O3*   A A   2       0.150  -0.335   0.000  0.00  0.00    +0.000 OA
ATOM      8  C4*   A A   2      -1.302  -0.562   0.000  0.00  0.00    +0.000 C 
ATOM      9  C3*   A A   2      -0.518  -0.819   0.000  0.00  0.00    +0.000 C 
ATOM     10  C2*   A A   2      -0.520  -1.643   0.000  0.00  0.00    +0.000 C 
ATOM     11  C1*   A A   2      -1.305  -1.897   0.000  0.00  0.00    +0.000 C 
BRANCH  11  12
ATOM     12  N9    A A   2      -1.561  -2.681   0.000  0.00  0.00    +0.000 N 
ATOM     13  N7    A A   2      -1.561  -4.009   0.000  0.00  0.00    +0.000 NA
ATOM     14  N3    A A   2      -3.056  -2.520   0.000  0.00  0.00    +0.000 NA
ATOM     15  N1    A A   2      -3.771  -3.758   0.000  0.00  0.00    +0.000 NA
ATOM     16  C4    A A   2      -2.342  -2.933   0.000  0.00  0.00    +0.000 A 
ATOM     17  C8    A A   2      -1.080  -3.345   0.000  0.00  0.00    +0.000 A 
ATOM     18  C5    A A   2      -2.342  -3.758   0.000  0.00  0.00    +0.000 A 
ATOM     19  C6    A A   2      -3.056  -4.170   0.000  0.00  0.00    +0.000 A 
ATOM     20  C2    A A   2      -3.771  -2.933   0.000  0.00  0.00    +0.000 A 
BRANCH  19  21
ATOM     21  N6    A A   2      -3.056  -4.995   0.000  0.00  0.00    +0.000 N 
ATOM     22  H61   A A   2      -2.613  -5.251   0.000  0.00  0.00    +0.000 HD
ATOM     23  H62   A A   2      -3.499  -5.251   0.000  0.00  0.00    +0.000 HD
ENDBRANCH  19  21
ENDBRANCH  11  12
ENDBRANCH   5   8
ENDBRANCH   4   5
ENDBRANCH   1   4
BRANCH   1  24
ATOM     24  O3*   C A   1      -1.510   2.405   0.000  0.00  0.00    +0.000 OA
BRANCH  24  26
ATOM     25  O4*   C A   1      -0.412   4.236   0.000  0.00  0.00    +0.000 OA
ATOM     26  C3*   C A   1      -0.957   3.017   0.000  0.00  0.00    +0.000 C 
ATOM     27  C4*   C A   1      -1.127   3.824   0.000  0.00  0.00    +0.000 C 
ATOM     28  C2*   C A   1      -0.137   2.929   0.000  0.00  0.00    +0.000 C 
ATOM     29  C1*   C A   1       0.200   3.683   0.000  0.00  0.00    +0.000 C 
BRANCH  29  31
ATOM     30  O2    C A   1       0.713   5.251   0.000  0.00  0.00    +0.000 OA
ATOM     31  N1    C A   1       1.007   3.853   0.000  0.00  0.00    +0.000 N 
ATOM     32  N3    C A   1       2.071   4.807   0.000  0.00  0.00    +0.000 NA
ATOM     33  N4    C A   1       3.429   4.363   0.000  0.00  0.00    +0.000 N 
ATOM     34  C6    C A   1       1.558   3.239   0.000  0.00  0.00    +0.000 A 
ATOM     35  C2    C A   1       1.264   4.637   0.000  0.00  0.00    +0.000 A 
ATOM     36  C5    C A   1       2.365   3.409   0.000  0.00  0.00    +0.000 A 
ATOM     37  C4    C A   1       2.622   4.193   0.000  0.00  0.00    +0.000 A 
ATOM     38  H41   C A   1       3.771   3.982   0.000  0.00  0.00    +0.000 HD
ATOM     39  H42   C A   1       3.588   4.849   0.000  0.00  0.00    +0.000 HD
ENDBRANCH  29  31
BRANCH  27  41
ATOM     40  O5*   C A   1      -1.965   4.982   0.000  0.00  0.00    +0.000 OA
ATOM     41  C5*   C A   1      -1.880   4.161   0.000  0.00  0.00    +0.000 C 
ENDBRANCH  27  41
ENDBRANCH  24  26
ENDBRANCH   1  24
TORSDOF 9
