REMARK  Name = 
REMARK  33 active torsions:
REMARK  status: ('A' for Active; 'I' for Inactive)
REMARK    1  A    between atoms: C_2  and  C_3
REMARK    2  A    between atoms: C_12  and  C_13
REMARK    3  A    between atoms: C_13  and  C_14
REMARK    4  A    between atoms: C_25  and  C_26
REMARK    5  A    between atoms: C_26  and  C_27
REMARK    6  A    between atoms: C_33  and  C_34
REMARK    7  A    between atoms: C_34  and  C_35
REMARK    8  A    between atoms: C_35  and  C_36
REMARK    9  A    between atoms: C_45  and  N_46
REMARK   10  A    between atoms: C_47  and  C_48
REMARK   11  A    between atoms: C_48  and  N_49
REMARK   12  A    between atoms: C_48  and  C_88
REMARK   13  A    between atoms: C_50  and  C_51
REMARK   14  A    between atoms: C_51  and  N_52
REMARK   15  A    between atoms: C_51  and  C_83
REMARK   16  A    between atoms: C_53  and  C_54
REMARK   17  A    between atoms: C_54  and  N_55
REMARK   18  A    between atoms: C_54  and  C_72
REMARK   19  A    between atoms: C_56  and  C_58
REMARK   20  A    between atoms: C_59  and  C_60
REMARK   21  A    between atoms: C_63  and  C_64
REMARK   22  A    between atoms: C_64  and  C_65
REMARK   23  A    between atoms: C_65  and  C_66
REMARK   24  A    between atoms: C_66  and  C_67
REMARK   25  A    between atoms: C_72  and  C_73
REMARK   26  A    between atoms: C_83  and  C_84
REMARK   27  A    between atoms: C_88  and  C_89
REMARK   28  A    between atoms: C_98  and  C_99
REMARK   29  A    between atoms: C_99  and  C_100
REMARK   30  A    between atoms: C_100  and  C_102
REMARK   31  A    between atoms: C_112  and  C_113
REMARK   32  A    between atoms: C_113  and  C_115
REMARK   33  A    between atoms: C_115  and  C_116
REMARK                            x       y       z     vdW  Elec       q    Type
REMARK                         _______ _______ _______ _____ _____    ______ ____
ROOT
ATOM      1  C   UNK A   1      -3.572  -4.872   0.000  0.00  0.00    +0.000 C 
ATOM      2  C   UNK A   1      -2.858  -5.284   0.000  0.00  0.00    +0.000 C 
ATOM      3  N   UNK A   1      -2.144  -4.872   0.000  0.00  0.00    +0.000 NA
ATOM      4  C   UNK A   1      -1.429  -5.284   0.000  0.00  0.00    +0.000 C 
ATOM      5  O   UNK A   1      -1.429  -6.109   0.000  0.00  0.00    +0.000 OA
ATOM      6  C   UNK A   1      -0.715  -4.872   0.000  0.00  0.00    +0.000 C 
ATOM      7  N   UNK A   1      -0.000  -5.285   0.000  0.00  0.00    +0.000 NA
ATOM      8  C   UNK A   1       0.714  -4.872   0.000  0.00  0.00    +0.000 C 
ATOM      9  O   UNK A   1       0.714  -4.047   0.000  0.00  0.00    +0.000 OA
ATOM     10  C   UNK A   1       1.429  -5.285   0.000  0.00  0.00    +0.000 C 
ATOM     11  N   UNK A   1       2.143  -4.872   0.000  0.00  0.00    +0.000 NA
ATOM     12  C   UNK A   1       2.858  -5.285   0.000  0.00  0.00    +0.000 C 
ATOM     13  O   UNK A   1       2.858  -6.110   0.000  0.00  0.00    +0.000 OA
ATOM     14  C   UNK A   1       3.572  -4.872   0.000  0.00  0.00    +0.000 C 
ATOM     15  C   UNK A   1       4.287  -5.285   0.000  0.00  0.00    +0.000 C 
ATOM     16  N   UNK A   1       3.572  -4.047   0.000  0.00  0.00    +0.000 NA
ATOM     17  C   UNK A   1       4.287  -3.635   0.000  0.00  0.00    +0.000 C 
ATOM     18  O   UNK A   1       5.001  -4.048   0.000  0.00  0.00    +0.000 OA
ATOM     19  C   UNK A   1       4.287  -2.810   0.000  0.00  0.00    +0.000 C 
ATOM     20  N   UNK A   1       3.572  -2.397   0.000  0.00  0.00    +0.000 NA
ATOM     21  C   UNK A   1       3.572  -1.572   0.000  0.00  0.00    +0.000 C 
ATOM     22  O   UNK A   1       4.287  -1.160   0.000  0.00  0.00    +0.000 OA
ATOM     23  C   UNK A   1       2.858  -1.160   0.000  0.00  0.00    +0.000 C 
ATOM     24  N   UNK A   1       2.144  -1.572   0.000  0.00  0.00    +0.000 NA
ATOM     25  C   UNK A   1       1.429  -1.159   0.000  0.00  0.00    +0.000 C 
ATOM     26  O   UNK A   1       1.429  -0.335   0.000  0.00  0.00    +0.000 OA
ATOM     27  C   UNK A   1       0.715  -1.572   0.000  0.00  0.00    +0.000 C 
ATOM     28  N   UNK A   1       0.000  -1.159   0.000  0.00  0.00    +0.000 NA
ATOM     29  C   UNK A   1      -0.295  -0.389   0.000  0.00  0.00    +0.000 C 
ATOM     30  O   UNK A   1       0.117   0.325   0.000  0.00  0.00    +0.000 OA
ATOM     31  C   UNK A   1      -1.120  -0.389   0.000  0.00  0.00    +0.000 C 
ATOM     32  C   UNK A   1      -1.416  -1.159   0.000  0.00  0.00    +0.000 C 
ATOM     33  C   UNK A   1      -0.789  -1.695   0.000  0.00  0.00    +0.000 C 
ATOM     34  O   UNK A   1      -2.131  -1.572   0.000  0.00  0.00    +0.000 OA
ATOM     35  C   UNK A   1      -2.845  -1.159   0.000  0.00  0.00    +0.000 C 
ATOM     36  O   UNK A   1      -2.845  -0.334   0.000  0.00  0.00    +0.000 OA
ATOM     37  C   UNK A   1      -3.560  -1.572   0.000  0.00  0.00    +0.000 C 
ATOM     38  N   UNK A   1      -3.560  -2.397   0.000  0.00  0.00    +0.000 NA
ATOM     39  C   UNK A   1      -4.287  -2.809   0.000  0.00  0.00    +0.000 C 
ATOM     40  O   UNK A   1      -5.001  -2.397   0.000  0.00  0.00    +0.000 OA
ATOM     41  C   UNK A   1      -4.287  -3.634   0.000  0.00  0.00    +0.000 C 
ATOM     42  N   UNK A   1      -3.572  -4.047   0.000  0.00  0.00    +0.000 NA
ATOM     43  O   UNK A   1      -4.287  -5.284   0.000  0.00  0.00    +0.000 OA
ENDROOT
BRANCH  31  44
ATOM     44  N   UNK A   1      -1.533   0.325   0.000  0.00  0.00    +0.000 NA
ATOM     45  C   UNK A   1      -1.120   1.040   0.000  0.00  0.00    +0.000 C 
ATOM     46  O   UNK A   1      -0.295   1.040   0.000  0.00  0.00    +0.000 OA
BRANCH  45  47
ATOM     47  C   UNK A   1      -1.533   1.754   0.000  0.00  0.00    +0.000 C 
BRANCH  47  48
ATOM     48  N   UNK A   1      -1.120   2.469   0.000  0.00  0.00    +0.000 NA
ATOM     49  C   UNK A   1      -0.295   2.469   0.000  0.00  0.00    +0.000 C 
ATOM     50  O   UNK A   1       0.117   1.754   0.000  0.00  0.00    +0.000 OA
BRANCH  49  51
ATOM     51  C   UNK A   1       0.117   3.183   0.000  0.00  0.00    +0.000 C 
BRANCH  51  52
ATOM     52  N   UNK A   1      -0.295   3.898   0.000  0.00  0.00    +0.000 NA
ATOM     53  C   UNK A   1       0.117   4.612   0.000  0.00  0.00    +0.000 C 
ATOM     54  O   UNK A   1       0.942   4.612   0.000  0.00  0.00    +0.000 OA
BRANCH  53  55
ATOM     55  C   UNK A   1      -0.295   5.327   0.000  0.00  0.00    +0.000 C 
BRANCH  55  56
ATOM     56  N   UNK A   1       0.117   6.041   0.000  0.00  0.00    +0.000 NA
ATOM     57  C   UNK A   0       0.942   6.041   0.000  0.00  0.00    +0.000 C 
ATOM     58  O   UNK A   0       1.355   6.756   0.000  0.00  0.00    +0.000 OA
BRANCH  57  59
ATOM     59  C   UNK A   0       1.355   5.327   0.000  0.00  0.00    +0.000 C 
ATOM     60  C   UNK A   0       2.180   5.327   0.000  0.00  0.00    +0.000 C 
ATOM     61  C   UNK A   0       2.592   6.041   0.000  0.00  0.00    +0.000 C 
BRANCH  60  62
ATOM     62  C   UNK A   0       2.592   4.612   0.000  0.00  0.00    +0.000 A 
ATOM     63  C   UNK A   0       2.180   3.898   0.000  0.00  0.00    +0.000 A 
ATOM     64  C   UNK A   0       2.592   3.183   0.000  0.00  0.00    +0.000 A 
ATOM     65  C   UNK A   0       3.417   3.183   0.000  0.00  0.00    +0.000 A 
ATOM     66  C   UNK A   0       3.830   3.898   0.000  0.00  0.00    +0.000 A 
ATOM     67  C   UNK A   0       3.417   4.612   0.000  0.00  0.00    +0.000 A 
BRANCH  65  68
ATOM     68  C   UNK A   0       3.830   2.469   0.000  0.00  0.00    +0.000 C 
BRANCH  68  69
ATOM     69  C   UNK A   0       4.655   2.469   0.000  0.00  0.00    +0.000 C 
BRANCH  69  70
ATOM     70  C   UNK A   0       5.067   1.755   0.000  0.00  0.00    +0.000 C 
BRANCH  70  71
ATOM     71  C   UNK A   0       5.892   1.754   0.000  0.00  0.00    +0.000 C 
ATOM     72  C   UNK A   0       6.305   1.040   0.000  0.00  0.00    +0.000 C 
ENDBRANCH  70  71
ENDBRANCH  69  70
ENDBRANCH  68  69
ENDBRANCH  65  68
ENDBRANCH  60  62
ENDBRANCH  57  59
ENDBRANCH  55  56
BRANCH  55  73
ATOM     73  C   UNK A   1      -1.120   5.327   0.000  0.00  0.00    +0.000 C 
BRANCH  73  74
ATOM     74  C   UNK A   1      -1.533   6.041   0.000  0.00  0.00    +0.000 A 
ATOM     75  C   UNK A   1      -1.197   6.795   0.000  0.00  0.00    +0.000 A 
ATOM     76  N   UNK A   1      -1.810   7.347   0.000  0.00  0.00    +0.000 NA
ATOM     77  C   UNK A   1      -2.525   6.935   0.000  0.00  0.00    +0.000 A 
ATOM     78  C   UNK A   1      -3.310   7.190   0.000  0.00  0.00    +0.000 A 
ATOM     79  C   UNK A   1      -3.941   6.660   0.000  0.00  0.00    +0.000 A 
ATOM     80  C   UNK A   1      -3.751   5.831   0.000  0.00  0.00    +0.000 A 
ATOM     81  C   UNK A   1      -2.985   5.598   0.000  0.00  0.00    +0.000 A 
ATOM     82  C   UNK A   1      -2.353   6.128   0.000  0.00  0.00    +0.000 A 
ENDBRANCH  73  74
ENDBRANCH  55  73
ENDBRANCH  53  55
ENDBRANCH  51  52
BRANCH  51  83
ATOM     83  C   UNK A   1       0.942   3.183   0.000  0.00  0.00    +0.000 C 
BRANCH  83  84
ATOM     84  C   UNK A   1       1.355   2.469   0.000  0.00  0.00    +0.000 C 
ATOM     85  O   UNK A   1       1.238   1.827   0.000  0.00  0.00    +0.000 OA
ATOM     86  N   UNK A   1       2.167   2.610   0.000  0.00  0.00    +0.000 NA
ENDBRANCH  83  84
ENDBRANCH  51  83
ENDBRANCH  49  51
ENDBRANCH  47  48
BRANCH  47  87
ATOM     87  C   UNK A   1      -2.358   1.754   0.000  0.00  0.00    +0.000 C 
BRANCH  87  88
ATOM     88  C   UNK A   1      -2.770   2.469   0.000  0.00  0.00    +0.000 C 
ATOM     89  O   UNK A   1      -3.595   2.469   0.000  0.00  0.00    +0.000 OA
ATOM     90  O   UNK A   1      -2.358   3.183   0.000  0.00  0.00    +0.000 OA
ENDBRANCH  87  88
ENDBRANCH  47  87
ENDBRANCH  45  47
ENDBRANCH  31  44
BRANCH   2  91
ATOM     91  C   UNK A   1      -2.858  -6.109   0.000  0.00  0.00    +0.000 C 
ATOM     92  O   UNK A   1      -3.572  -6.522   0.000  0.00  0.00    +0.000 OA
ENDBRANCH   2  91
BRANCH  41  93
ATOM     93  C   UNK A   1      -5.001  -4.047   0.000  0.00  0.00    +0.000 C 
ATOM     94  C   UNK A   1      -5.716  -3.634   0.000  0.00  0.00    +0.000 C 
BRANCH  93  95
ATOM     95  C   UNK A   1      -5.001  -4.872   0.000  0.00  0.00    +0.000 C 
BRANCH  95  96
ATOM     96  C   UNK A   1      -5.716  -5.284   0.000  0.00  0.00    +0.000 C 
ATOM     97  O   UNK A   1      -6.431  -4.872   0.000  0.00  0.00    +0.000 OA
ATOM     98  O   UNK A   1      -5.716  -6.109   0.000  0.00  0.00    +0.000 OA
ENDBRANCH  95  96
ENDBRANCH  93  95
ENDBRANCH  41  93
BRANCH  19  99
ATOM     99  C   UNK A   1       5.001  -2.397   0.000  0.00  0.00    +0.000 C 
BRANCH  99 100
ATOM    100  C   UNK A   1       5.716  -2.810   0.000  0.00  0.00    +0.000 C 
ATOM    101  O   UNK A   1       5.716  -3.635   0.000  0.00  0.00    +0.000 OA
ATOM    102  O   UNK A   1       6.431  -2.397   0.000  0.00  0.00    +0.000 OA
ENDBRANCH  99 100
ENDBRANCH  19  99
BRANCH  10 103
ATOM    103  C   UNK A   1       1.429  -6.110   0.000  0.00  0.00    +0.000 C 
BRANCH 103 104
ATOM    104  C   UNK A   1       0.714  -6.522   0.000  0.00  0.00    +0.000 C 
ATOM    105  O   UNK A   1       0.714  -7.347   0.000  0.00  0.00    +0.000 OA
ATOM    106  O   UNK A   1      -0.000  -6.110   0.000  0.00  0.00    +0.000 OA
ENDBRANCH 103 104
ENDBRANCH  10 103
BRANCH  37 107
ATOM    107  C   UNK A   1      -4.274  -1.159   0.000  0.00  0.00    +0.000 C 
BRANCH 107 108
ATOM    108  C   UNK A   1      -4.274  -0.334   0.000  0.00  0.00    +0.000 C 
ATOM    109  O   UNK A   1      -3.774  -0.045   0.000  0.00  0.00    +0.000 OA
BRANCH 108 110
ATOM    110  C   UNK A   1      -4.989   0.078   0.000  0.00  0.00    +0.000 A 
ATOM    111  C   UNK A   1      -5.703  -0.334   0.000  0.00  0.00    +0.000 A 
ATOM    112  N   UNK A   1      -5.703  -1.159   0.000  0.00  0.00    +0.000 NA
ATOM    113  C   UNK A   1      -6.418   0.079   0.000  0.00  0.00    +0.000 A 
ATOM    114  C   UNK A   1      -6.418   0.903   0.000  0.00  0.00    +0.000 A 
ATOM    115  C   UNK A   1      -5.703   1.316   0.000  0.00  0.00    +0.000 A 
ATOM    116  C   UNK A   1      -4.989   0.903   0.000  0.00  0.00    +0.000 A 
ENDBRANCH 108 110
ENDBRANCH 107 108
ENDBRANCH  37 107
BRANCH  23 117
ATOM    117  C   UNK A   1       2.858  -0.335   0.000  0.00  0.00    +0.000 C 
BRANCH 117 118
ATOM    118  C   UNK A   1       3.556  -0.051   0.000  0.00  0.00    +0.000 C 
BRANCH 118 119
ATOM    119  C   UNK A   1       3.669   0.767   0.000  0.00  0.00    +0.000 C 
ATOM    120  N   UNK A   1       4.433   1.078   0.000  0.00  0.00    +0.000 NA
ENDBRANCH 118 119
ENDBRANCH 117 118
ENDBRANCH  23 117
TORSDOF 33
