REMARK  Name = 
REMARK  9 active torsions:
REMARK  status: ('A' for Active; 'I' for Inactive)
REMARK    1  A    between atoms: C_13  and  C_31
REMARK    2  A    between atoms: O_21  and  P_23
REMARK    3  A    between atoms: O_21  and  C_31
REMARK    4  A    between atoms: P_23  and  O_25
REMARK    5  A    between atoms: O_25  and  P_27
REMARK    6  A    between atoms: P_27  and  O_33
REMARK    7  A    between atoms: C_32  and  O_33
REMARK    8  A    between atoms: C_32  and  C_39
REMARK    9  A    between atoms: N_34  and  C_35
REMARK                            x       y       z     vdW  Elec       q    Type
REMARK                         _______ _______ _______ _____ _____    ______ ____
ROOT
ATOM      1  O   UNL     1       4.287  -1.650   0.000  0.00  0.00    +0.000 OA
ATOM      2  P   UNL     1       4.287  -0.825   0.000  0.00  0.00    +0.000 P 
ATOM      3  O   UNL     1       4.287   0.000   0.000  0.00  0.00    +0.000 OA
ENDROOT
BRANCH   2   4
ATOM      4  O   UNL     1       3.572  -0.412   0.000  0.00  0.00    +0.000 OA
BRANCH   4   5
ATOM      5  C   UNL     1       2.858  -0.825   0.000  0.00  0.00    +0.000 C 
BRANCH   5  18
ATOM      6  C   UNL     1      -0.715   0.412   0.000  0.00  0.00    +0.000 A 
ATOM      7  C   UNL     1      -0.715  -0.412   0.000  0.00  0.00    +0.000 A 
ATOM      8  N   UNL     1       0.000   0.825   0.000  0.00  0.00    +0.000 NA
ATOM      9  N   UNL     1       0.000  -0.825   0.000  0.00  0.00    +0.000 NA
ATOM     10  C   UNL     1       0.715   0.412   0.000  0.00  0.00    +0.000 C 
ATOM     11  C   UNL     1       0.715  -0.412   0.000  0.00  0.00    +0.000 C 
ATOM     12  S   UNL     1       2.858   0.825   0.000  0.00  0.00    +0.000 S 
ATOM     13  S   UNL     1       1.429   1.650   0.000  0.00  0.00    +0.000 S 
ATOM     14  O   UNL     1      -1.429   1.650   0.000  0.00  0.00    +0.000 OA
ATOM     15  N   UNL     1      -2.858  -0.825   0.000  0.00  0.00    +0.000 NA
ATOM     16  C   UNL     1       1.429   0.825   0.000  0.00  0.00    +0.000 C 
ATOM     17  C   UNL     1       2.143   0.412   0.000  0.00  0.00    +0.000 C 
ATOM     18  C   UNL     1       2.143  -0.412   0.000  0.00  0.00    +0.000 C 
ATOM     19  O   UNL     1       1.429  -0.825   0.000  0.00  0.00    +0.000 OA
ATOM     20  C   UNL     1      -1.429   0.825   0.000  0.00  0.00    +0.000 A 
ATOM     21  N   UNL     1      -1.429  -0.825   0.000  0.00  0.00    +0.000 NA
ATOM     22  C   UNL     1      -2.143  -0.412   0.000  0.00  0.00    +0.000 A 
ATOM     23  N   UNL     1      -2.143   0.412   0.000  0.00  0.00    +0.000 NA
ENDBRANCH   5  18
ENDBRANCH   4   5
ENDBRANCH   2   4
BRANCH   2  24
ATOM     24  O   UNL     1       5.001  -0.412   0.000  0.00  0.00    +0.000 OA
BRANCH  24  26
ATOM     25  O   UNL     1       5.716  -1.650   0.000  0.00  0.00    +0.000 OA
ATOM     26  P   UNL     1       5.716  -0.825   0.000  0.00  0.00    +0.000 P 
ATOM     27  O   UNL     1       5.716   0.000   0.000  0.00  0.00    +0.000 OA
BRANCH  26  28
ATOM     28  O   UNL     1       6.430  -0.412   0.000  0.00  0.00    +0.000 OA
BRANCH  28  29
ATOM     29  C   UNL     1       7.251  -0.499   0.000  0.00  0.00    +0.000 C 
BRANCH  29  36
ATOM     30  O   UNL     1       9.046  -0.499   0.000  0.00  0.00    +0.000 OA
ATOM     31  O   UNL     1       9.600   1.208   0.000  0.00  0.00    +0.000 OA
ATOM     32  C   UNL     1       8.148   1.438   0.000  0.00  0.00    +0.000 C 
ATOM     33  C   UNL     1       8.561   0.169   0.000  0.00  0.00    +0.000 C 
ATOM     34  C   UNL     1       8.816   0.953   0.000  0.00  0.00    +0.000 C 
ATOM     35  O   UNL     1       7.481   0.953   0.000  0.00  0.00    +0.000 OA
ATOM     36  C   UNL     1       7.736   0.169   0.000  0.00  0.00    +0.000 C 
BRANCH  32  37
ATOM     37  N   UNL     1       8.148   2.263   0.000  0.00  0.00    +0.000 N 
ATOM     38  C   UNL     1       7.434   2.676   0.000  0.00  0.00    +0.000 A 
ATOM     39  N   UNL     1       7.434   3.501   0.000  0.00  0.00    +0.000 NA
ATOM     40  C   UNL     1       8.148   3.913   0.000  0.00  0.00    +0.000 A 
ATOM     41  C   UNL     1       8.863   3.501   0.000  0.00  0.00    +0.000 A 
ATOM     42  C   UNL     1       8.863   2.676   0.000  0.00  0.00    +0.000 A 
ATOM     43  O   UNL     1       6.719   2.263   0.000  0.00  0.00    +0.000 OA
ATOM     44  N   UNL     1       8.148   4.738   0.000  0.00  0.00    +0.000 NA
ENDBRANCH  32  37
ENDBRANCH  29  36
ENDBRANCH  28  29
ENDBRANCH  26  28
ENDBRANCH  24  26
ENDBRANCH   2  24
TORSDOF 9
