REMARK  Name = 
REMARK  18 active torsions:
REMARK  status: ('A' for Active; 'I' for Inactive)
REMARK    1  A    between atoms: C_1  and  O_3
REMARK    2  A    between atoms: O_3  and  C_4
REMARK    3  A    between atoms: C_4  and  C_6
REMARK    4  A    between atoms: C_10  and  O_12
REMARK    5  A    between atoms: O_12  and  C_13
REMARK    6  A    between atoms: C_16  and  O_24
REMARK    7  A    between atoms: C_18  and  C_19
REMARK    8  A    between atoms: C_19  and  O_21
REMARK    9  A    between atoms: O_21  and  C_22
REMARK   10  A    between atoms: O_24  and  C_25
REMARK   11  A    between atoms: C_28  and  O_36
REMARK   12  A    between atoms: C_30  and  C_31
REMARK   13  A    between atoms: C_31  and  O_33
REMARK   14  A    between atoms: O_33  and  C_34
REMARK   15  A    between atoms: O_36  and  C_37
REMARK   16  A    between atoms: C_42  and  C_43
REMARK   17  A    between atoms: C_43  and  O_45
REMARK   18  A    between atoms: O_45  and  C_46
REMARK                            x       y       z     vdW  Elec       q    Type
REMARK                         _______ _______ _______ _____ _____    ______ ____
ROOT
ATOM      1  O   UNL     1       0.715  -6.188   0.000  0.00  0.00    +0.000 OA
ENDROOT
BRANCH   1   2
ATOM      2  C   UNL     1       1.429  -6.600   0.000  0.00  0.00    +0.000 C 
ATOM      3  C   UNL     1       1.429  -7.425   0.000  0.00  0.00    +0.000 C 
ATOM      4  C   UNL     1       2.143  -7.838   0.000  0.00  0.00    +0.000 C 
ATOM      5  C   UNL     1       2.858  -7.425   0.000  0.00  0.00    +0.000 C 
ATOM      6  O   UNL     1       2.858  -6.600   0.000  0.00  0.00    +0.000 OA
ATOM      7  C   UNL     1       2.143  -6.188   0.000  0.00  0.00    +0.000 C 
ATOM      8  O   UNL     1       2.143  -8.662   0.000  0.00  0.00    +0.000 OA
ATOM      9  O   UNL     1       0.715  -7.838   0.000  0.00  0.00    +0.000 OA
BRANCH   7  10
ATOM     10  C   UNL     1       2.143  -5.362   0.000  0.00  0.00    +0.000 C 
ATOM     11  O   UNL     1       2.858  -4.950   0.000  0.00  0.00    +0.000 OA
BRANCH  10  12
ATOM     12  O   UNL     1       1.429  -4.950   0.000  0.00  0.00    +0.000 OA
BRANCH  12  13
ATOM     13  C   UNL     1       1.429  -4.125   0.000  0.00  0.00    +0.000 C 
ATOM     14  O   UNL     1       0.715  -3.712   0.000  0.00  0.00    +0.000 OA
ENDBRANCH  12  13
ENDBRANCH  10  12
ENDBRANCH   7  10
BRANCH   5  15
ATOM     15  O   UNL     1       3.572  -7.838   0.000  0.00  0.00    +0.000 OA
BRANCH  15  16
ATOM     16  C   UNL     1       4.287  -7.425   0.000  0.00  0.00    +0.000 C 
ATOM     17  C   UNL     1       4.287  -6.600   0.000  0.00  0.00    +0.000 C 
ATOM     18  C   UNL     1       5.001  -6.188   0.000  0.00  0.00    +0.000 C 
ATOM     19  C   UNL     1       5.716  -6.600   0.000  0.00  0.00    +0.000 C 
ATOM     20  O   UNL     1       5.716  -7.425   0.000  0.00  0.00    +0.000 OA
ATOM     21  C   UNL     1       5.001  -7.838   0.000  0.00  0.00    +0.000 C 
ATOM     22  O   UNL     1       6.430  -6.188   0.000  0.00  0.00    +0.000 OA
ATOM     23  O   UNL     1       5.001  -5.362   0.000  0.00  0.00    +0.000 OA
ATOM     24  O   UNL     1       3.572  -6.188   0.000  0.00  0.00    +0.000 OA
BRANCH  21  25
ATOM     25  C   UNL     1       5.001  -8.662   0.000  0.00  0.00    +0.000 C 
ATOM     26  O   UNL     1       4.287  -9.075   0.000  0.00  0.00    +0.000 OA
BRANCH  25  27
ATOM     27  O   UNL     1       5.716  -9.075   0.000  0.00  0.00    +0.000 OA
BRANCH  27  28
ATOM     28  C   UNL     1       5.716  -9.900   0.000  0.00  0.00    +0.000 C 
ATOM     29  O   UNL     1       6.430 -10.312   0.000  0.00  0.00    +0.000 OA
ENDBRANCH  27  28
ENDBRANCH  25  27
ENDBRANCH  21  25
ENDBRANCH  15  16
ENDBRANCH   5  15
ENDBRANCH   1   2
BRANCH   1  33
ATOM     30  C   UNL     1      -1.429  -7.425   0.000  0.00  0.00    +0.000 C 
ATOM     31  C   UNL     1      -1.429  -6.600   0.000  0.00  0.00    +0.000 C 
ATOM     32  C   UNL     1      -0.715  -6.188   0.000  0.00  0.00    +0.000 C 
ATOM     33  C   UNL     1       0.000  -6.600   0.000  0.00  0.00    +0.000 C 
ATOM     34  O   UNL     1       0.000  -7.425   0.000  0.00  0.00    +0.000 OA
ATOM     35  C   UNL     1      -0.715  -7.838   0.000  0.00  0.00    +0.000 C 
ATOM     36  O   UNL     1      -0.715  -5.362   0.000  0.00  0.00    +0.000 OA
ATOM     37  O   UNL     1      -2.143  -6.188   0.000  0.00  0.00    +0.000 OA
BRANCH  35  38
ATOM     38  C   UNL     1      -0.715  -8.662   0.000  0.00  0.00    +0.000 C 
ATOM     39  O   UNL     1      -1.429  -9.075   0.000  0.00  0.00    +0.000 OA
BRANCH  38  40
ATOM     40  O   UNL     1       0.000  -9.075   0.000  0.00  0.00    +0.000 OA
BRANCH  40  41
ATOM     41  C   UNL     1       0.000  -9.900   0.000  0.00  0.00    +0.000 C 
ATOM     42  O   UNL     1      -0.715 -10.312   0.000  0.00  0.00    +0.000 OA
ENDBRANCH  40  41
ENDBRANCH  38  40
ENDBRANCH  35  38
BRANCH  30  43
ATOM     43  O   UNL     1      -2.143  -7.838   0.000  0.00  0.00    +0.000 OA
BRANCH  43  48
ATOM     44  C   UNL     1      -3.572  -6.188   0.000  0.00  0.00    +0.000 C 
ATOM     45  C   UNL     1      -4.287  -6.600   0.000  0.00  0.00    +0.000 C 
ATOM     46  C   UNL     1      -4.287  -7.425   0.000  0.00  0.00    +0.000 C 
ATOM     47  C   UNL     1      -3.572  -7.838   0.000  0.00  0.00    +0.000 C 
ATOM     48  C   UNL     1      -2.858  -7.425   0.000  0.00  0.00    +0.000 C 
ATOM     49  O   UNL     1      -2.858  -6.600   0.000  0.00  0.00    +0.000 OA
ATOM     50  O   UNL     1      -3.572  -8.662   0.000  0.00  0.00    +0.000 OA
ATOM     51  O   UNL     1      -5.001  -7.838   0.000  0.00  0.00    +0.000 OA
ATOM     52  O   UNL     1      -5.001  -6.188   0.000  0.00  0.00    +0.000 OA
BRANCH  44  53
ATOM     53  C   UNL     1      -3.572  -5.362   0.000  0.00  0.00    +0.000 C 
ATOM     54  O   UNL     1      -2.858  -4.950   0.000  0.00  0.00    +0.000 OA
BRANCH  53  55
ATOM     55  O   UNL     1      -4.287  -4.950   0.000  0.00  0.00    +0.000 OA
BRANCH  55  56
ATOM     56  C   UNL     1      -4.287  -4.125   0.000  0.00  0.00    +0.000 C 
ATOM     57  O   UNL     1      -5.001  -3.712   0.000  0.00  0.00    +0.000 OA
ENDBRANCH  55  56
ENDBRANCH  53  55
ENDBRANCH  44  53
ENDBRANCH  43  48
ENDBRANCH  30  43
ENDBRANCH   1  33
TORSDOF 18
