REMARK  Name = 
REMARK  11 active torsions:
REMARK  status: ('A' for Active; 'I' for Inactive)
REMARK    1  A    between atoms: C_2  and  O_3
REMARK    2  A    between atoms: O_3  and  C_4
REMARK    3  A    between atoms: C_7  and  C_9
REMARK    4  A    between atoms: C_12  and  O_15
REMARK    5  A    between atoms: O_15  and  C_16
REMARK    6  A    between atoms: C_16  and  C_17
REMARK    7  A    between atoms: C_21  and  C_23
REMARK    8  A    between atoms: C_23  and  O_24
REMARK    9  A    between atoms: O_24  and  C_25
REMARK   10  A    between atoms: C_28  and  C_31
REMARK   11  A    between atoms: C_31  and  C_34
REMARK                            x       y       z     vdW  Elec       q    Type
REMARK                         _______ _______ _______ _____ _____    ______ ____
ROOT
ATOM      1  C   UNL     1       7.859  -7.838   0.000  0.00  0.00    +0.000 A 
ATOM      2  C   UNL     1       7.145  -7.425   0.000  0.00  0.00    +0.000 A 
ATOM      3  C   UNL     1       7.145  -6.600   0.000  0.00  0.00    +0.000 A 
ATOM      4  C   UNL     1       7.859  -6.188   0.000  0.00  0.00    +0.000 A 
ATOM      5  C   UNL     1       8.574  -6.600   0.000  0.00  0.00    +0.000 A 
ATOM      6  C   UNL     1       8.574  -7.425   0.000  0.00  0.00    +0.000 A 
ENDROOT
BRANCH   1   7
ATOM      7  C   UNL     1       7.859  -8.662   0.000  0.00  0.00    +0.000 C 
BRANCH   7   8
ATOM      8  O   UNL     1       7.145  -9.075   0.000  0.00  0.00    +0.000 OA
BRANCH   8  12
ATOM      9  C   UNL     1       7.145 -11.550   0.000  0.00  0.00    +0.000 A 
ATOM     10  C   UNL     1       6.430 -11.137   0.000  0.00  0.00    +0.000 A 
ATOM     11  C   UNL     1       6.430 -10.312   0.000  0.00  0.00    +0.000 A 
ATOM     12  C   UNL     1       7.145  -9.900   0.000  0.00  0.00    +0.000 A 
ATOM     13  C   UNL     1       7.859 -10.312   0.000  0.00  0.00    +0.000 A 
ATOM     14  C   UNL     1       7.859 -11.137   0.000  0.00  0.00    +0.000 A 
BRANCH   9  18
ATOM     15  C   UNL     1       5.716 -12.375   0.000  0.00  0.00    +0.000 C 
ATOM     16  O   UNL     1       5.716 -11.550   0.000  0.00  0.00    +0.000 OA
ATOM     17  N   UNL     1       6.430 -12.787   0.000  0.00  0.00    +0.000 NA
ATOM     18  C   UNL     1       7.145 -12.375   0.000  0.00  0.00    +0.000 C 
ATOM     19  N   UNL     1       7.859 -12.787   0.000  0.00  0.00    +0.000 NA
BRANCH  15  20
ATOM     20  O   UNL     1       5.001 -12.787   0.000  0.00  0.00    +0.000 OA
BRANCH  20  22
ATOM     21  C   UNL     1       3.572 -12.787   0.000  0.00  0.00    +0.000 C 
ATOM     22  C   UNL     1       4.287 -12.375   0.000  0.00  0.00    +0.000 C 
ENDBRANCH  20  22
ENDBRANCH  15  20
ENDBRANCH   9  18
ENDBRANCH   8  12
ENDBRANCH   7   8
ENDBRANCH   1   7
BRANCH   5  23
ATOM     23  C   UNL     1       9.288  -6.188   0.000  0.00  0.00    +0.000 C 
BRANCH  23  24
ATOM     24  O   UNL     1       9.288  -5.362   0.000  0.00  0.00    +0.000 OA
BRANCH  24  25
ATOM     25  C   UNL     1      10.003  -4.950   0.000  0.00  0.00    +0.000 A 
ATOM     26  C   UNL     1      10.003  -4.125   0.000  0.00  0.00    +0.000 A 
ATOM     27  C   UNL     1      10.717  -3.712   0.000  0.00  0.00    +0.000 A 
ATOM     28  C   UNL     1      11.431  -4.125   0.000  0.00  0.00    +0.000 A 
ATOM     29  C   UNL     1      11.431  -4.950   0.000  0.00  0.00    +0.000 A 
ATOM     30  C   UNL     1      10.717  -5.362   0.000  0.00  0.00    +0.000 A 
BRANCH  28  31
ATOM     31  C   UNL     1      12.146  -3.712   0.000  0.00  0.00    +0.000 C 
ATOM     32  C   UNL     1      12.559  -4.427   0.000  0.00  0.00    +0.000 C 
ATOM     33  C   UNL     1      11.733  -2.998   0.000  0.00  0.00    +0.000 C 
BRANCH  31  34
ATOM     34  C   UNL     1      12.861  -3.300   0.000  0.00  0.00    +0.000 A 
ATOM     35  C   UNL     1      12.861  -2.475   0.000  0.00  0.00    +0.000 A 
ATOM     36  C   UNL     1      13.575  -2.062   0.000  0.00  0.00    +0.000 A 
ATOM     37  C   UNL     1      14.289  -2.475   0.000  0.00  0.00    +0.000 A 
ATOM     38  C   UNL     1      14.289  -3.300   0.000  0.00  0.00    +0.000 A 
ATOM     39  C   UNL     1      13.575  -3.712   0.000  0.00  0.00    +0.000 A 
ATOM     40  O   UNL     1      15.004  -2.062   0.000  0.00  0.00    +0.000 OA
ENDBRANCH  31  34
ENDBRANCH  28  31
ENDBRANCH  24  25
ENDBRANCH  23  24
ENDBRANCH   5  23
TORSDOF 11
