REMARK  Name = 
REMARK  5 active torsions:
REMARK  status: ('A' for Active; 'I' for Inactive)
REMARK    1  A    between atoms: C_3  and  C_17
REMARK    2  A    between atoms: C_7  and  N_11
REMARK    3  A    between atoms: C_20  and  C_23
REMARK    4  A    between atoms: C_23  and  C_24
REMARK    5  A    between atoms: C_24  and  O_25
REMARK                            x       y       z     vdW  Elec       q    Type
REMARK                         _______ _______ _______ _____ _____    ______ ____
ROOT
ATOM      1  C   UNL     1      -1.453  -0.698   0.000  0.00  0.00    +0.000 C 
ATOM      2  C   UNL     1      -0.628  -0.698   0.000  0.00  0.00    +0.000 A 
ATOM      3  C   UNL     1      -0.143  -1.365   0.000  0.00  0.00    +0.000 A 
ATOM      4  N   UNL     1       0.641  -1.110   0.000  0.00  0.00    +0.000 N 
ATOM      5  C   UNL     1       0.641  -0.285   0.000  0.00  0.00    +0.000 A 
ATOM      6  N   UNL     1      -0.143  -0.030   0.000  0.00  0.00    +0.000 NA
ATOM      7  C   UNL     1       1.356   0.127   0.000  0.00  0.00    +0.000 A 
ATOM      8  C   UNL     1       2.070  -0.285   0.000  0.00  0.00    +0.000 A 
ATOM      9  C   UNL     1       2.070  -1.110   0.000  0.00  0.00    +0.000 A 
ATOM     10  N   UNL     1       1.356  -1.523   0.000  0.00  0.00    +0.000 NA
ENDROOT
BRANCH   7  11
ATOM     11  N   UNL     1       1.356   0.952   0.000  0.00  0.00    +0.000 N 
ATOM     12  C   UNL     1       0.641   1.365   0.000  0.00  0.00    +0.000 C 
ATOM     13  C   UNL     1       0.641   2.190   0.000  0.00  0.00    +0.000 C 
ATOM     14  O   UNL     1       1.356   2.602   0.000  0.00  0.00    +0.000 OA
ATOM     15  C   UNL     1       2.070   2.190   0.000  0.00  0.00    +0.000 C 
ATOM     16  C   UNL     1       2.070   1.365   0.000  0.00  0.00    +0.000 C 
ENDBRANCH   7  11
BRANCH   3  17
ATOM     17  C   UNL     1      -0.398  -2.150   0.000  0.00  0.00    +0.000 A 
ATOM     18  C   UNL     1       0.154  -2.763   0.000  0.00  0.00    +0.000 A 
ATOM     19  C   UNL     1      -0.101  -3.548   0.000  0.00  0.00    +0.000 A 
ATOM     20  C   UNL     1      -0.908  -3.719   0.000  0.00  0.00    +0.000 A 
ATOM     21  N   UNL     1      -1.460  -3.106   0.000  0.00  0.00    +0.000 NA
ATOM     22  C   UNL     1      -1.205  -2.321   0.000  0.00  0.00    +0.000 A 
BRANCH  20  23
ATOM     23  C   UNL     1      -1.163  -4.504   0.000  0.00  0.00    +0.000 C 
BRANCH  23  24
ATOM     24  C   UNL     1      -0.611  -5.117   0.000  0.00  0.00    +0.000 C 
BRANCH  24  25
ATOM     25  O   UNL     1      -0.866  -5.902   0.000  0.00  0.00    +0.000 OA
ATOM     26  C   UNL     1      -0.314  -6.515   0.000  0.00  0.00    +0.000 C 
ENDBRANCH  24  25
ENDBRANCH  23  24
ENDBRANCH  20  23
ENDBRANCH   3  17
TORSDOF 5
