REMARK  Name = 
REMARK  9 active torsions:
REMARK  status: ('A' for Active; 'I' for Inactive)
REMARK    1  A    between atoms: C_9  and  C_10
REMARK    2  A    between atoms: C_10  and  C_11
REMARK    3  A    between atoms: C_19  and  C_21
REMARK    4  A    between atoms: C_21  and  C_22
REMARK    5  A    between atoms: C_21  and  N_31
REMARK    6  A    between atoms: C_22  and  O_23
REMARK    7  A    between atoms: O_23  and  C_24
REMARK    8  A    between atoms: C_24  and  C_25
REMARK    9  A    between atoms: C_32  and  C_34
REMARK                            x       y       z     vdW  Elec       q    Type
REMARK                         _______ _______ _______ _____ _____    ______ ____
ROOT
ATOM      1  C   UNL     1      -2.119  -1.195   0.000  0.00  0.00    +0.000 C 
ATOM      2  N   UNL     1      -1.706  -0.481   0.000  0.00  0.00    +0.000 N 
ATOM      3  N   UNL     1      -2.042   0.273   0.000  0.00  0.00    +0.000 NA
ATOM      4  C   UNL     1      -1.429   0.825   0.000  0.00  0.00    +0.000 C 
ATOM      5  C   UNL     1      -1.429   1.650   0.000  0.00  0.00    +0.000 C 
ATOM      6  C   UNL     1      -0.715   2.062   0.000  0.00  0.00    +0.000 C 
ATOM      7  N   UNL     1       0.000   1.650   0.000  0.00  0.00    +0.000 N 
ATOM      8  C   UNL     1       0.000   0.825   0.000  0.00  0.00    +0.000 C 
ATOM      9  C   UNL     1      -0.715   0.412   0.000  0.00  0.00    +0.000 C 
ATOM     10  C   UNL     1      -0.886  -0.395   0.000  0.00  0.00    +0.000 C 
ATOM     11  O   UNL     1      -0.334  -1.008   0.000  0.00  0.00    +0.000 OA
ATOM     12  C   UNL     1       0.715   2.062   0.000  0.00  0.00    +0.000 C 
ATOM     13  O   UNL     1       0.715   2.888   0.000  0.00  0.00    +0.000 OA
ENDROOT
BRANCH  12  14
ATOM     14  C   UNL     1       1.429   1.650   0.000  0.00  0.00    +0.000 C 
BRANCH  14  15
ATOM     15  N   UNL     1       1.429   0.825   0.000  0.00  0.00    +0.000 NA
ATOM     16  C   UNL     1       2.143   0.412   0.000  0.00  0.00    +0.000 C 
ATOM     17  O   UNL     1       2.143  -0.412   0.000  0.00  0.00    +0.000 OA
BRANCH  16  18
ATOM     18  C   UNL     1       2.858   0.825   0.000  0.00  0.00    +0.000 C 
ATOM     19  C   UNL     1       3.270   0.111   0.000  0.00  0.00    +0.000 C 
ATOM     20  C   UNL     1       2.445   1.540   0.000  0.00  0.00    +0.000 C 
ATOM     21  N   UNL     1       3.572   1.238   0.000  0.00  0.00    +0.000 NA
ENDBRANCH  16  18
ENDBRANCH  14  15
BRANCH  14  22
ATOM     22  C   UNL     1       2.143   2.062   0.000  0.00  0.00    +0.000 C 
BRANCH  22  23
ATOM     23  O   UNL     1       2.858   1.650   0.000  0.00  0.00    +0.000 OA
BRANCH  23  24
ATOM     24  C   UNL     1       3.572   2.062   0.000  0.00  0.00    +0.000 C 
BRANCH  24  25
ATOM     25  C   UNL     1       4.287   1.650   0.000  0.00  0.00    +0.000 A 
ATOM     26  C   UNL     1       5.001   2.062   0.000  0.00  0.00    +0.000 A 
ATOM     27  C   UNL     1       5.716   1.650   0.000  0.00  0.00    +0.000 A 
ATOM     28  C   UNL     1       5.716   0.825   0.000  0.00  0.00    +0.000 A 
ATOM     29  C   UNL     1       5.001   0.412   0.000  0.00  0.00    +0.000 A 
ATOM     30  C   UNL     1       4.287   0.825   0.000  0.00  0.00    +0.000 A 
ENDBRANCH  24  25
ENDBRANCH  23  24
ENDBRANCH  22  23
ENDBRANCH  14  22
ENDBRANCH  12  14
BRANCH   9  31
ATOM     31  C   UNL     1      -0.047  -0.072   0.000  0.00  0.00    +0.000 C 
BRANCH  31  32
ATOM     32  C   UNL     1       0.707   0.263   0.000  0.00  0.00    +0.000 A 
ATOM     33  C   UNL     1       0.793   1.084   0.000  0.00  0.00    +0.000 A 
ATOM     34  C   UNL     1       1.516   1.306   0.000  0.00  0.00    +0.000 A 
ATOM     35  C   UNL     1       2.214   0.934   0.000  0.00  0.00    +0.000 A 
ATOM     36  C   UNL     1       2.128   0.114   0.000  0.00  0.00    +0.000 A 
ATOM     37  C   UNL     1       1.374  -0.222   0.000  0.00  0.00    +0.000 A 
ENDBRANCH  31  32
ENDBRANCH   9  31
TORSDOF 9
