REMARK  Name = 
REMARK  14 active torsions:
REMARK  status: ('A' for Active; 'I' for Inactive)
REMARK    1  A    between atoms: CG_2  and  CB_4
REMARK    2  A    between atoms: CB_4  and  CA_5
REMARK    3  A    between atoms: CA_5  and  N_6
REMARK    4  A    between atoms: CA_5  and  C_10
REMARK    5  A    between atoms: N_12  and  CA_13
REMARK    6  A    between atoms: CA_13  and  CB_14
REMARK    7  A    between atoms: CA_13  and  C_18
REMARK    8  A    between atoms: CB_14  and  CG_15
REMARK    9  A    between atoms: N_20  and  CA_21
REMARK   10  A    between atoms: CA_21  and  CB_22
REMARK   11  A    between atoms: CA_21  and  C_29
REMARK   12  A    between atoms: CB_22  and  CG_23
REMARK   13  A    between atoms: CG_23  and  CD_24
REMARK   14  A    between atoms: CD_24  and  NE_25
REMARK                            x       y       z     vdW  Elec       q    Type
REMARK                         _______ _______ _______ _____ _____    ______ ____
ROOT
ATOM      1  CA  LEU A   2       9.735   1.969   0.000  0.00  0.00    +0.000 C 
ENDROOT
BRANCH   1   4
ATOM      2  C   LEU A   1       8.323   1.747   0.000  0.00  0.00    +0.000 C 
ATOM      3  O   LEU A   1       8.452   0.932   0.000  0.00  0.00    +0.000 OA
ATOM      4  N   LEU A   2       8.965   2.265   0.000  0.00  0.00    +0.000 NA
BRANCH   2   5
ATOM      5  CA  LEU A   1       7.553   2.043   0.000  0.00  0.00    +0.000 C 
BRANCH   5   6
ATOM      6  N   LEU A   1       7.425   2.858   0.000  0.00  0.00    +0.000 NA
ATOM      7  C   UNK A   0       6.655   3.154   0.000  0.00  0.00    +0.000 C 
ATOM      8  C   UNK A   0       6.013   2.636   0.000  0.00  0.00    +0.000 C 
ATOM      9  O   UNK A   0       6.527   3.969   0.000  0.00  0.00    +0.000 OA
ENDBRANCH   5   6
BRANCH   5  10
ATOM     10  CB  LEU A   1       6.912   1.524   0.000  0.00  0.00    +0.000 C 
BRANCH  10  12
ATOM     11  CD1 LEU A   1       7.810   0.413   0.000  0.00  0.00    +0.000 C 
ATOM     12  CG  LEU A   1       7.040   0.709   0.000  0.00  0.00    +0.000 C 
ATOM     13  CD2 LEU A   1       6.398   0.191   0.000  0.00  0.00    +0.000 C 
ENDBRANCH  10  12
ENDBRANCH   5  10
ENDBRANCH   2   5
ENDBRANCH   1   4
BRANCH   1  14
ATOM     14  C   LEU A   2      10.376   2.487   0.000  0.00  0.00    +0.000 C 
ATOM     15  O   LEU A   2      10.248   3.302   0.000  0.00  0.00    +0.000 OA
ATOM     16  N   ARG A   3      11.146   2.191   0.000  0.00  0.00    +0.000 NA
BRANCH  16  17
ATOM     17  CA  ARG A   3      11.788   2.710   0.000  0.00  0.00    +0.000 C 
BRANCH  17  18
ATOM     18  C   ARG A   3      11.660   3.525   0.000  0.00  0.00    +0.000 C 
ATOM     19  O   ARG A   3      12.301   4.043   0.000  0.00  0.00    +0.000 OA
ENDBRANCH  17  18
BRANCH  17  20
ATOM     20  CB  ARG A   3      12.558   2.413   0.000  0.00  0.00    +0.000 C 
BRANCH  20  21
ATOM     21  CG  ARG A   3      13.200   2.932   0.000  0.00  0.00    +0.000 C 
BRANCH  21  22
ATOM     22  CD  ARG A   3      13.970   2.636   0.000  0.00  0.00    +0.000 C 
BRANCH  22  23
ATOM     23  NE  ARG A   3      14.611   3.154   0.000  0.00  0.00    +0.000 NA
ATOM     24  CZ  ARG A   3      15.381   2.858   0.000  0.00  0.00    +0.000 C 
ATOM     25  NH1 ARG A   3      16.023   3.377   0.000  0.00  0.00    +0.000 NA
ATOM     26  NH2 ARG A   3      15.509   2.043   0.000  0.00  0.00    +0.000 NA
ENDBRANCH  22  23
ENDBRANCH  21  22
ENDBRANCH  20  21
ENDBRANCH  17  20
ENDBRANCH  16  17
ENDBRANCH   1  14
BRANCH   1  27
ATOM     27  CB  LEU A   2       9.863   1.154   0.000  0.00  0.00    +0.000 C 
BRANCH  27  28
ATOM     28  CG  LEU A   2      10.633   0.858   0.000  0.00  0.00    +0.000 C 
ATOM     29  CD1 LEU A   2      11.275   1.376   0.000  0.00  0.00    +0.000 C 
ATOM     30  CD2 LEU A   2      10.761   0.043   0.000  0.00  0.00    +0.000 C 
ENDBRANCH  27  28
ENDBRANCH   1  27
TORSDOF 14
