REMARK  Name = 
REMARK  6 active torsions:
REMARK  status: ('A' for Active; 'I' for Inactive)
REMARK    1  A    between atoms: C_1  and  C_2
REMARK    2  A    between atoms: C_1  and  C_9
REMARK    3  A    between atoms: C_2  and  C_16
REMARK    4  A    between atoms: C_9  and  N_21
REMARK    5  A    between atoms: C_11  and  C_17
REMARK    6  A    between atoms: C_14  and  C_17
REMARK                            x       y       z     vdW  Elec       q    Type
REMARK                         _______ _______ _______ _____ _____    ______ ____
ROOT
ATOM      1  C   UNL     1       0.714   0.412   0.000  0.00  0.00    +0.000 C 
ATOM      2  N   UNL     1       0.000   0.825   0.000  0.00  0.00    +0.000 NA
ENDROOT
BRANCH   1   7
ATOM      3  C   UNL     1       0.714  -2.062   0.000  0.00  0.00    +0.000 A 
ATOM      4  C   UNL     1       1.429  -1.650   0.000  0.00  0.00    +0.000 A 
ATOM      5  C   UNL     1       0.000  -0.825   0.000  0.00  0.00    +0.000 A 
ATOM      6  C   UNL     1       0.000  -1.650   0.000  0.00  0.00    +0.000 A 
ATOM      7  C   UNL     1       0.714  -0.412   0.000  0.00  0.00    +0.000 A 
ATOM      8  C   UNL     1       1.429  -0.825   0.000  0.00  0.00    +0.000 A 
ATOM      9  F   UNL     1      -0.714  -2.062   0.000  0.00  0.00    +0.000 F 
ATOM     10  O   UNL     1       2.143  -0.412   0.000  0.00  0.00    +0.000 OA
ENDBRANCH   1   7
BRANCH   1  15
ATOM     11  C   UNL     1       2.143   0.412   0.000  0.00  0.00    +0.000 A 
ATOM     12  C   UNL     1       1.429   1.650   0.000  0.00  0.00    +0.000 A 
ATOM     13  C   UNL     1       2.858   0.825   0.000  0.00  0.00    +0.000 A 
ATOM     14  C   UNL     1       2.143   2.062   0.000  0.00  0.00    +0.000 A 
ATOM     15  C   UNL     1       1.429   0.825   0.000  0.00  0.00    +0.000 A 
ATOM     16  C   UNL     1       2.858   1.650   0.000  0.00  0.00    +0.000 A 
ATOM     17 CL   UNL     1       3.572   2.062   0.000  0.00  0.00    +0.000 Cl
ENDBRANCH   1  15
BRANCH   2  18
ATOM     18  C   UNL     1      -0.714   0.412   0.000  0.00  0.00    +0.000 C 
BRANCH  18  19
ATOM     19  C   UNL     1      -1.429   0.825   0.000  0.00  0.00    +0.000 C 
BRANCH  19  20
ATOM     20  C   UNL     1      -2.143   0.412   0.000  0.00  0.00    +0.000 C 
BRANCH  20  21
ATOM     21  C   UNL     1      -2.858   0.825   0.000  0.00  0.00    +0.000 C 
ATOM     22  N   UNL     1      -3.572   0.412   0.000  0.00  0.00    +0.000 NA
ATOM     23  O   UNL     1      -2.858   1.650   0.000  0.00  0.00    +0.000 OA
ENDBRANCH  20  21
ENDBRANCH  19  20
ENDBRANCH  18  19
ENDBRANCH   2  18
TORSDOF 6
