REMARK  Name = 
REMARK  7 active torsions:
REMARK  status: ('A' for Active; 'I' for Inactive)
REMARK    1  A    between atoms: C_3  and  C_25
REMARK    2  A    between atoms: C_6  and  C_7
REMARK    3  A    between atoms: C_10  and  O_13
REMARK    4  A    between atoms: O_13  and  C_14
REMARK    5  A    between atoms: C_14  and  C_15
REMARK    6  A    between atoms: C_17  and  C_21
REMARK    7  A    between atoms: C_21  and  C_22
REMARK                            x       y       z     vdW  Elec       q    Type
REMARK                         _______ _______ _______ _____ _____    ______ ____
ROOT
ATOM      1  C   UNL     1       2.143   8.416   0.000  0.00  0.00    +0.000 A 
ATOM      2  C   UNL     1       2.858   8.004   0.000  0.00  0.00    +0.000 A 
ATOM      3  C   UNL     1       2.858   7.179   0.000  0.00  0.00    +0.000 A 
ATOM      4  C   UNL     1       2.143   6.766   0.000  0.00  0.00    +0.000 A 
ATOM      5  C   UNL     1       1.429   7.179   0.000  0.00  0.00    +0.000 A 
ATOM      6  C   UNL     1       1.429   8.004   0.000  0.00  0.00    +0.000 A 
ENDROOT
BRANCH   1  12
ATOM      7  C   UNL     1       1.429   9.654   0.000  0.00  0.00    +0.000 A 
ATOM      8  C   UNL     1       1.429  10.479   0.000  0.00  0.00    +0.000 A 
ATOM      9  C   UNL     1       2.143  10.891   0.000  0.00  0.00    +0.000 A 
ATOM     10  C   UNL     1       2.858  10.479   0.000  0.00  0.00    +0.000 A 
ATOM     11  C   UNL     1       2.858   9.654   0.000  0.00  0.00    +0.000 A 
ATOM     12  C   UNL     1       2.143   9.241   0.000  0.00  0.00    +0.000 A 
BRANCH   9  13
ATOM     13  C   UNL     1       2.143  11.716   0.000  0.00  0.00    +0.000 C 
ATOM     14  N   UNL     1       1.429  12.129   0.000  0.00  0.00    +0.000 NA
ATOM     15  N   UNL     1       2.858  12.129   0.000  0.00  0.00    +0.000 NA
ENDBRANCH   9  13
ENDBRANCH   1  12
BRANCH   4  16
ATOM     16  O   UNL     1       2.143   5.941   0.000  0.00  0.00    +0.000 OA
BRANCH  16  17
ATOM     17  C   UNL     1       1.429   5.529   0.000  0.00  0.00    +0.000 C 
BRANCH  17  18
ATOM     18  C   UNL     1       1.429   4.704   0.000  0.00  0.00    +0.000 C 
ATOM     19  C   UNL     1       2.096   4.219   0.000  0.00  0.00    +0.000 C 
ATOM     20  C   UNL     1       1.841   3.434   0.000  0.00  0.00    +0.000 C 
ATOM     21  C   UNL     1       1.016   3.434   0.000  0.00  0.00    +0.000 C 
ATOM     22  O   UNL     1       0.531   2.767   0.000  0.00  0.00    +0.000 OA
ATOM     23  N   UNL     1       0.761   4.219   0.000  0.00  0.00    +0.000 NA
BRANCH  20  24
ATOM     24  C   UNL     1       2.326   2.767   0.000  0.00  0.00    +0.000 C 
BRANCH  24  25
ATOM     25  C   UNL     1       1.991   2.013   0.000  0.00  0.00    +0.000 C 
ATOM     26  O   UNL     1       2.476   1.345   0.000  0.00  0.00    +0.000 OA
ATOM     27  O   UNL     1       1.170   1.927   0.000  0.00  0.00    +0.000 OA
ENDBRANCH  24  25
ENDBRANCH  20  24
ENDBRANCH  17  18
ENDBRANCH  16  17
ENDBRANCH   4  16
TORSDOF 7
