REMARK  Name = MRX
REMARK  3 active torsions:
REMARK  status: ('A' for Active; 'I' for Inactive)
REMARK    1  A    between atoms: C_8  and  C_9
REMARK    2  A    between atoms: C_12  and  S_14
REMARK    3  A    between atoms: S_14  and  N_17
REMARK                            x       y       z     vdW  Elec       q    Type
REMARK                         _______ _______ _______ _____ _____    ______ ____
ROOT
ATOM      1 BR   UNL     1       2.380   0.465   0.000  0.00  0.00    +0.000 Br
ATOM      2  C   UNL     1       1.666   0.878   0.000  0.00  0.00    +0.000 A 
ATOM      3  C   UNL     1       0.952   0.465   0.000  0.00  0.00    +0.000 A 
ATOM      4  C   UNL     1       1.666   1.703   0.000  0.00  0.00    +0.000 A 
ATOM      5  C   UNL     1       0.952   2.115   0.000  0.00  0.00    +0.000 A 
ATOM      6  C   UNL     1       0.237   1.703   0.000  0.00  0.00    +0.000 A 
ATOM      7  N   UNL     1      -0.548   1.958   0.000  0.00  0.00    +0.000 NA
ATOM      8  C   UNL     1      -1.033   1.290   0.000  0.00  0.00    +0.000 A 
ATOM      9  C   UNL     1      -0.548   0.623   0.000  0.00  0.00    +0.000 A 
ATOM     10  C   UNL     1       0.237   0.878   0.000  0.00  0.00    +0.000 A 
ENDROOT
BRANCH   8  11
ATOM     11  C   UNL     1      -1.858   1.290   0.000  0.00  0.00    +0.000 C 
ATOM     12  N   UNL     1      -2.270   0.576   0.000  0.00  0.00    +0.000 NA
ATOM     13  O   UNL     1      -2.270   2.005   0.000  0.00  0.00    +0.000 OA
ENDBRANCH   8  11
BRANCH   9  14
ATOM     14  S   UNL     1      -0.803  -0.162   0.000  0.00  0.00    +0.000 S 
ATOM     15  O   UNL     1      -0.018  -0.417   0.000  0.00  0.00    +0.000 OA
ATOM     16  O   UNL     1      -1.587   0.093   0.000  0.00  0.00    +0.000 OA
BRANCH  14  17
ATOM     17  N   UNL     1      -1.058  -0.946   0.000  0.00  0.00    +0.000 NA
ATOM     18  C   UNL     1      -0.573  -1.614   0.000  0.00  0.00    +0.000 C 
ATOM     19  C   UNL     1      -1.058  -2.281   0.000  0.00  0.00    +0.000 C 
ATOM     20  C   UNL     1      -1.842  -2.026   0.000  0.00  0.00    +0.000 C 
ATOM     21  C   UNL     1      -1.842  -1.201   0.000  0.00  0.00    +0.000 C 
ENDBRANCH  14  17
ENDBRANCH   9  14
TORSDOF 3
