REMARK  Name = MSD
REMARK  7 active torsions:
REMARK  status: ('A' for Active; 'I' for Inactive)
REMARK    1  A    between atoms: C_1  and  C_25
REMARK    2  A    between atoms: N_7  and  C_8
REMARK    3  A    between atoms: C_8  and  N_10
REMARK    4  A    between atoms: N_10  and  C_11
REMARK    5  A    between atoms: C_13  and  C_14
REMARK    6  A    between atoms: C_15  and  O_24
REMARK    7  A    between atoms: C_18  and  C_21
REMARK                            x       y       z     vdW  Elec       q    Type
REMARK                         _______ _______ _______ _____ _____    ______ ____
ROOT
ATOM      1  C   UNL     1       1.660  -0.050   0.000  0.00  0.00    +0.000 C 
ATOM      2  C   UNL     1       2.072  -0.764   0.000  0.00  0.00    +0.000 C 
ATOM      3  C   UNL     1       1.247  -0.764   0.000  0.00  0.00    +0.000 C 
ENDROOT
BRANCH   3   4
ATOM      4  C   UNL     1       0.533  -1.177   0.000  0.00  0.00    +0.000 A 
ATOM      5  C   UNL     1       0.533  -2.002   0.000  0.00  0.00    +0.000 A 
ATOM      6  C   UNL     1      -0.182  -2.414   0.000  0.00  0.00    +0.000 A 
ATOM      7  C   UNL     1      -0.896  -2.002   0.000  0.00  0.00    +0.000 A 
ATOM      8  C   UNL     1      -0.896  -1.177   0.000  0.00  0.00    +0.000 A 
ATOM      9  C   UNL     1      -0.182  -0.764   0.000  0.00  0.00    +0.000 A 
ATOM     10  O   UNL     1      -0.182   0.061   0.000  0.00  0.00    +0.000 OA
BRANCH   8  11
ATOM     11  C   UNL     1      -1.611  -0.764   0.000  0.00  0.00    +0.000 C 
ATOM     12  O   UNL     1      -2.325  -1.177   0.000  0.00  0.00    +0.000 OA
ATOM     13  C   UNL     1      -1.611   0.061   0.000  0.00  0.00    +0.000 C 
ENDBRANCH   8  11
BRANCH   5  14
ATOM     14  O   UNL     1       1.247  -2.414   0.000  0.00  0.00    +0.000 OA
ATOM     15  C   UNL     1       1.247  -3.239   0.000  0.00  0.00    +0.000 C 
ENDBRANCH   5  14
ENDBRANCH   3   4
BRANCH   1  16
ATOM     16  N   UNL     1       1.660   0.775   0.000  0.00  0.00    +0.000 NA
BRANCH  16  17
ATOM     17  C   UNL     1       0.945   1.188   0.000  0.00  0.00    +0.000 C 
ATOM     18  S   UNL     1       0.231   0.775   0.000  0.00  0.00    +0.000 S 
BRANCH  17  25
ATOM     19  C   UNL     1      -1.198   3.250   0.000  0.00  0.00    +0.000 A 
ATOM     20  C   UNL     1      -0.484   3.663   0.000  0.00  0.00    +0.000 A 
ATOM     21  N   UNL     1       0.231   3.250   0.000  0.00  0.00    +0.000 NA
ATOM     22  C   UNL     1       0.231   2.425   0.000  0.00  0.00    +0.000 A 
ATOM     23  C   UNL     1      -0.484   2.013   0.000  0.00  0.00    +0.000 A 
ATOM     24  C   UNL     1      -1.198   2.425   0.000  0.00  0.00    +0.000 A 
ATOM     25  N   UNL     1       0.945   2.013   0.000  0.00  0.00    +0.000 NA
BRANCH  19  26
ATOM     26  C   UNL     1      -1.913   3.663   0.000  0.00  0.00    +0.000 C 
ATOM     27  N   UNL     1      -2.627   4.075   0.000  0.00  0.00    +0.000 NA
ENDBRANCH  19  26
ENDBRANCH  17  25
ENDBRANCH  16  17
ENDBRANCH   1  16
TORSDOF 7
