REMARK  Name = MSI
REMARK  5 active torsions:
REMARK  status: ('A' for Active; 'I' for Inactive)
REMARK    1  A    between atoms: S_1  and  N_3
REMARK    2  A    between atoms: S_1  and  C_12
REMARK    3  A    between atoms: O_4  and  C_21
REMARK    4  A    between atoms: O_4  and  C_22
REMARK    5  A    between atoms: C_17  and  C_21
REMARK                            x       y       z     vdW  Elec       q    Type
REMARK                         _______ _______ _______ _____ _____    ______ ____
ROOT
ATOM      1  S   UNL     1       0.778  -0.677   0.000  0.00  0.00    +0.000 S 
ATOM      2  O   UNL     1       1.190  -1.391   0.000  0.00  0.00    +0.000 OA
ATOM      3  O   UNL     1       0.365   0.038   0.000  0.00  0.00    +0.000 OA
ENDROOT
BRANCH   1  10
ATOM      4  N   UNL     1      -2.150  -2.169   0.000  0.00  0.00    +0.000 N 
ATOM      5  O   UNL     1      -3.460  -1.502   0.000  0.00  0.00    +0.000 OA
ATOM      6  O   UNL     1      -2.405  -0.050   0.000  0.00  0.00    +0.000 OA
ATOM      7  C   UNL     1      -2.635  -1.502   0.000  0.00  0.00    +0.000 C 
ATOM      8  C   UNL     1      -2.150  -0.834   0.000  0.00  0.00    +0.000 C 
ATOM      9  C   UNL     1      -0.651  -0.677   0.000  0.00  0.00    +0.000 A 
ATOM     10  C   UNL     1       0.063  -1.089   0.000  0.00  0.00    +0.000 A 
ATOM     11  C   UNL     1       0.063  -1.914   0.000  0.00  0.00    +0.000 A 
ATOM     12  C   UNL     1      -0.651  -2.327   0.000  0.00  0.00    +0.000 A 
ATOM     13  C   UNL     1      -1.366  -1.914   0.000  0.00  0.00    +0.000 A 
ATOM     14  C   UNL     1      -1.366  -1.089   0.000  0.00  0.00    +0.000 A 
ATOM     15  C   UNL     1      -2.405  -2.954   0.000  0.00  0.00    +0.000 C 
ENDBRANCH   1  10
BRANCH   1  16
ATOM     16  N   UNL     1       1.492  -0.264   0.000  0.00  0.00    +0.000 NA
ATOM     17  C   UNL     1       1.579   0.556   0.000  0.00  0.00    +0.000 C 
ATOM     18  C   UNL     1       2.385   0.728   0.000  0.00  0.00    +0.000 C 
ATOM     19  C   UNL     1       2.798   0.013   0.000  0.00  0.00    +0.000 C 
ATOM     20  C   UNL     1       2.246  -0.600   0.000  0.00  0.00    +0.000 C 
BRANCH  17  21
ATOM     21  C   UNL     1       0.965   1.108   0.000  0.00  0.00    +0.000 C 
BRANCH  21  22
ATOM     22  O   UNL     1       0.181   0.853   0.000  0.00  0.00    +0.000 OA
BRANCH  22  23
ATOM     23  C   UNL     1      -0.432   1.405   0.000  0.00  0.00    +0.000 A 
ATOM     24  C   UNL     1      -1.217   1.151   0.000  0.00  0.00    +0.000 A 
ATOM     25  C   UNL     1      -1.830   1.702   0.000  0.00  0.00    +0.000 A 
ATOM     26  C   UNL     1      -1.659   2.510   0.000  0.00  0.00    +0.000 A 
ATOM     27  C   UNL     1      -0.874   2.764   0.000  0.00  0.00    +0.000 A 
ATOM     28  C   UNL     1      -0.261   2.212   0.000  0.00  0.00    +0.000 A 
ENDBRANCH  22  23
ENDBRANCH  21  22
ENDBRANCH  17  21
ENDBRANCH   1  16
TORSDOF 5
