REMARK  Name = MSQ
REMARK  5 active torsions:
REMARK  status: ('A' for Active; 'I' for Inactive)
REMARK    1  A    between atoms: C_6  and  N_11
REMARK    2  A    between atoms: C_8  and  O_20
REMARK    3  A    between atoms: C_9  and  O_22
REMARK    4  A    between atoms: N_11  and  C_12
REMARK    5  A    between atoms: C_14  and  S_18
REMARK                            x       y       z     vdW  Elec       q    Type
REMARK                         _______ _______ _______ _____ _____    ______ ____
ROOT
ATOM      1  N   UNL     1      -1.057  -0.732   0.000  0.00  0.00    +0.000 NA
ATOM      2  C   UNL     1      -1.057  -1.557   0.000  0.00  0.00    +0.000 A 
ATOM      3  N   UNL     1      -0.342  -1.970   0.000  0.00  0.00    +0.000 NA
ATOM      4  C   UNL     1       0.372  -1.557   0.000  0.00  0.00    +0.000 A 
ATOM      5  C   UNL     1       0.372  -0.732   0.000  0.00  0.00    +0.000 A 
ATOM      6  C   UNL     1      -0.342  -0.320   0.000  0.00  0.00    +0.000 A 
ATOM      7  C   UNL     1       1.087  -1.970   0.000  0.00  0.00    +0.000 A 
ATOM      8  C   UNL     1       1.801  -1.557   0.000  0.00  0.00    +0.000 A 
ATOM      9  C   UNL     1       1.801  -0.732   0.000  0.00  0.00    +0.000 A 
ATOM     10  C   UNL     1       1.087  -0.320   0.000  0.00  0.00    +0.000 A 
ENDROOT
BRANCH   8  11
ATOM     11  O   UNL     1       2.516  -1.970   0.000  0.00  0.00    +0.000 OA
ATOM     12  C   UNL     1       3.230  -1.557   0.000  0.00  0.00    +0.000 C 
ENDBRANCH   8  11
BRANCH   9  13
ATOM     13  O   UNL     1       2.516  -0.320   0.000  0.00  0.00    +0.000 OA
ATOM     14  C   UNL     1       2.516   0.505   0.000  0.00  0.00    +0.000 C 
ENDBRANCH   9  13
BRANCH   6  15
ATOM     15  N   UNL     1      -0.342   0.505   0.000  0.00  0.00    +0.000 NA
BRANCH  15  16
ATOM     16  C   UNL     1      -1.057   0.918   0.000  0.00  0.00    +0.000 A 
ATOM     17  C   UNL     1      -1.771   0.505   0.000  0.00  0.00    +0.000 A 
ATOM     18  C   UNL     1      -2.486   0.918   0.000  0.00  0.00    +0.000 A 
ATOM     19  C   UNL     1      -2.486   1.743   0.000  0.00  0.00    +0.000 A 
ATOM     20  C   UNL     1      -1.771   2.155   0.000  0.00  0.00    +0.000 A 
ATOM     21  C   UNL     1      -1.057   1.743   0.000  0.00  0.00    +0.000 A 
BRANCH  18  22
ATOM     22  S   UNL     1      -3.200   0.505   0.000  0.00  0.00    +0.000 S 
ATOM     23  C   UNL     1      -3.915   0.918   0.000  0.00  0.00    +0.000 C 
ENDBRANCH  18  22
ENDBRANCH  15  16
ENDBRANCH   6  15
TORSDOF 5
