REMARK  Name = MSR
REMARK  1 active torsions:
REMARK  status: ('A' for Active; 'I' for Inactive)
REMARK    1  A    between atoms: C_7  and  N_8
REMARK                            x       y       z     vdW  Elec       q    Type
REMARK                         _______ _______ _______ _____ _____    ______ ____
ROOT
ATOM      1  C   UNL     1       0.193  -0.165   0.000  0.00  0.00    +0.000 A 
ATOM      2  C   UNL     1       0.193   0.660   0.000  0.00  0.00    +0.000 A 
ATOM      3  C   UNL     1       0.907   1.073   0.000  0.00  0.00    +0.000 A 
ATOM      4  O   UNL     1       0.907   1.898   0.000  0.00  0.00    +0.000 OA
ATOM      5  C   UNL     1       1.621   0.660   0.000  0.00  0.00    +0.000 A 
ATOM      6  C   UNL     1       1.621  -0.165   0.000  0.00  0.00    +0.000 A 
ATOM      7  C   UNL     1       0.907  -0.577   0.000  0.00  0.00    +0.000 A 
ENDROOT
BRANCH   7   8
ATOM      8  N   UNL     1       0.907  -1.402   0.000  0.00  0.00    +0.000 N 
ATOM      9  C   UNL     1       1.575  -1.887   0.000  0.00  0.00    +0.000 A 
ATOM     10  C   UNL     1       1.320  -2.672   0.000  0.00  0.00    +0.000 A 
ATOM     11  N   UNL     1       0.495  -2.672   0.000  0.00  0.00    +0.000 NA
ATOM     12  C   UNL     1       0.240  -1.887   0.000  0.00  0.00    +0.000 A 
ENDBRANCH   7   8
TORSDOF 1
