REMARK  Name = MTB
REMARK  4 active torsions:
REMARK  status: ('A' for Active; 'I' for Inactive)
REMARK    1  A    between atoms: C_1  and  N_18
REMARK    2  A    between atoms: C_2  and  C_13
REMARK    3  A    between atoms: C_7  and  N_19
REMARK    4  A    between atoms: C_9  and  C_14
REMARK                            x       y       z     vdW  Elec       q    Type
REMARK                         _______ _______ _______ _____ _____    ______ ____
ROOT
ATOM      1  C   UNL     1       0.262   0.102   0.000  0.00  0.00    +0.000 A 
ATOM      2  C   UNL     1      -0.452   0.514   0.000  0.00  0.00    +0.000 A 
ATOM      3  C   UNL     1      -0.452   1.339   0.000  0.00  0.00    +0.000 A 
ATOM      4  C   UNL     1       0.262   1.752   0.000  0.00  0.00    +0.000 A 
ATOM      5  C   UNL     1       0.977   1.339   0.000  0.00  0.00    +0.000 A 
ATOM      6  C   UNL     1       0.977   0.514   0.000  0.00  0.00    +0.000 A 
ATOM      7  O   UNL     1       0.262   2.577   0.000  0.00  0.00    +0.000 OA
ENDROOT
BRANCH   3   8
ATOM      8  C   UNL     1      -1.167   1.752   0.000  0.00  0.00    +0.000 C 
ATOM      9  C   UNL     1      -1.881   2.164   0.000  0.00  0.00    +0.000 C 
ATOM     10  C   UNL     1      -0.754   2.466   0.000  0.00  0.00    +0.000 C 
ATOM     11  C   UNL     1      -1.579   1.037   0.000  0.00  0.00    +0.000 C 
ENDBRANCH   3   8
BRANCH   1  13
ATOM     12  N   UNL     1       0.977  -1.136   0.000  0.00  0.00    +0.000 NA
ATOM     13  N   UNL     1       0.262  -0.723   0.000  0.00  0.00    +0.000 NA
BRANCH  12  14
ATOM     14  C   UNL     1       0.977  -1.961   0.000  0.00  0.00    +0.000 A 
ATOM     15  C   UNL     1       1.691  -2.373   0.000  0.00  0.00    +0.000 A 
ATOM     16  C   UNL     1       1.691  -3.198   0.000  0.00  0.00    +0.000 A 
ATOM     17  C   UNL     1       0.977  -3.611   0.000  0.00  0.00    +0.000 A 
ATOM     18  C   UNL     1       0.262  -3.198   0.000  0.00  0.00    +0.000 A 
ATOM     19  C   UNL     1       0.262  -2.373   0.000  0.00  0.00    +0.000 A 
BRANCH  15  20
ATOM     20  C   UNL     1       2.406  -1.961   0.000  0.00  0.00    +0.000 C 
ATOM     21  O   UNL     1       3.120  -2.373   0.000  0.00  0.00    +0.000 OA
ATOM     22  O   UNL     1       2.406  -1.136   0.000  0.00  0.00    +0.000 OA
ENDBRANCH  15  20
ENDBRANCH  12  14
ENDBRANCH   1  13
TORSDOF 4
