REMARK  Name = MTH
REMARK  3 active torsions:
REMARK  status: ('A' for Active; 'I' for Inactive)
REMARK    1  A    between atoms: S_2  and  C_3
REMARK    2  A    between atoms: C_3  and  C_4
REMARK    3  A    between atoms: C_10  and  N_11
REMARK                            x       y       z     vdW  Elec       q    Type
REMARK                         _______ _______ _______ _____ _____    ______ ____
ROOT
ATOM      1  C   UNL     1      -0.760  -1.001   0.000  0.00  0.00    +0.000 C 
ATOM      2  O   UNL     1      -0.760  -0.176   0.000  0.00  0.00    +0.000 OA
ATOM      3  C   UNL     1       0.510  -0.588   0.000  0.00  0.00    +0.000 C 
ATOM      4  O   UNL     1       1.335  -0.588   0.000  0.00  0.00    +0.000 OA
ATOM      5  C   UNL     1       0.025  -1.256   0.000  0.00  0.00    +0.000 C 
ATOM      6  O   UNL     1       0.280  -2.040   0.000  0.00  0.00    +0.000 OA
ATOM      7  C   UNL     1       0.025   0.079   0.000  0.00  0.00    +0.000 C 
ENDROOT
BRANCH   7   8
ATOM      8  N   UNL     1       0.280   0.864   0.000  0.00  0.00    +0.000 N 
ATOM      9  C   UNL     1      -0.205   1.531   0.000  0.00  0.00    +0.000 A 
ATOM     10  C   UNL     1       0.280   2.199   0.000  0.00  0.00    +0.000 A 
ATOM     11  C   UNL     1       1.065   1.944   0.000  0.00  0.00    +0.000 A 
ATOM     12  C   UNL     1       1.779   2.356   0.000  0.00  0.00    +0.000 A 
ATOM     13  N   UNL     1       1.779   3.181   0.000  0.00  0.00    +0.000 NA
ATOM     14  N   UNL     1       2.493   1.944   0.000  0.00  0.00    +0.000 NA
ATOM     15  C   UNL     1       2.493   1.119   0.000  0.00  0.00    +0.000 A 
ATOM     16  N   UNL     1       1.779   0.706   0.000  0.00  0.00    +0.000 NA
ATOM     17  C   UNL     1       1.065   1.119   0.000  0.00  0.00    +0.000 A 
ENDBRANCH   7   8
BRANCH   1  18
ATOM     18  C   UNL     1      -1.427  -1.486   0.000  0.00  0.00    +0.000 C 
BRANCH  18  20
ATOM     19  C   UNL     1      -2.008  -2.791   0.000  0.00  0.00    +0.000 C 
ATOM     20  S   UNL     1      -1.341  -2.306   0.000  0.00  0.00    +0.000 S 
ENDBRANCH  18  20
ENDBRANCH   1  18
TORSDOF 3
