REMARK  Name = MUF
REMARK  3 active torsions:
REMARK  status: ('A' for Active; 'I' for Inactive)
REMARK    1  A    between atoms: C_3  and  C_22
REMARK    2  A    between atoms: C_17  and  C_20
REMARK    3  A    between atoms: C_20  and  C_25
REMARK                            x       y       z     vdW  Elec       q    Type
REMARK                         _______ _______ _______ _____ _____    ______ ____
ROOT
ATOM      1  C   UNL     1       1.909   0.065   0.000  0.00  0.00    +0.000 C 
ATOM      2  C   UNL     1       2.721  -0.081   0.000  0.00  0.00    +0.000 C 
ATOM      3  C   UNL     1       3.001  -0.856   0.000  0.00  0.00    +0.000 C 
ATOM      4  C   UNL     1       2.469  -1.487   0.000  0.00  0.00    +0.000 C 
ATOM      5  C   UNL     1       1.657  -1.342   0.000  0.00  0.00    +0.000 C 
ATOM      6  C   UNL     1       1.125  -1.973   0.000  0.00  0.00    +0.000 C 
ATOM      7  C   UNL     1       0.313  -1.827   0.000  0.00  0.00    +0.000 C 
ATOM      8  C   UNL     1       0.033  -1.052   0.000  0.00  0.00    +0.000 C 
ATOM      9  C   UNL     1       0.565  -0.421   0.000  0.00  0.00    +0.000 C 
ATOM     10  C   UNL     1       1.377  -0.566   0.000  0.00  0.00    +0.000 C 
ATOM     11  C   UNL     1       0.284   0.355   0.000  0.00  0.00    +0.000 C 
ATOM     12  C   UNL     1      -0.528   0.500   0.000  0.00  0.00    +0.000 C 
ATOM     13  C   UNL     1      -1.060  -0.130   0.000  0.00  0.00    +0.000 C 
ATOM     14  C   UNL     1      -0.779  -0.906   0.000  0.00  0.00    +0.000 C 
ATOM     15  C   UNL     1      -1.431  -1.413   0.000  0.00  0.00    +0.000 C 
ATOM     16  C   UNL     1      -2.114  -0.950   0.000  0.00  0.00    +0.000 C 
ATOM     17  C   UNL     1      -1.884  -0.157   0.000  0.00  0.00    +0.000 C 
ATOM     18  C   UNL     1      -1.419   0.612   0.000  0.00  0.00    +0.000 C 
ATOM     19  C   UNL     1       1.097   0.210   0.000  0.00  0.00    +0.000 C 
ENDROOT
BRANCH   3  20
ATOM     20  C   UNL     1       3.813  -1.002   0.000  0.00  0.00    +0.000 C 
ATOM     21  O   UNL     1       4.093  -1.778   0.000  0.00  0.00    +0.000 OA
ATOM     22  O   UNL     1       4.345  -0.371   0.000  0.00  0.00    +0.000 OA
ENDBRANCH   3  20
BRANCH  17  23
ATOM     23  C   UNL     1      -2.390   0.494   0.000  0.00  0.00    +0.000 C 
ATOM     24  O   UNL     1      -3.208   0.381   0.000  0.00  0.00    +0.000 OA
BRANCH  23  25
ATOM     25  C   UNL     1      -2.080   1.258   0.000  0.00  0.00    +0.000 A 
ATOM     26  C   UNL     1      -2.586   1.910   0.000  0.00  0.00    +0.000 A 
ATOM     27  C   UNL     1      -2.275   2.674   0.000  0.00  0.00    +0.000 A 
ATOM     28  C   UNL     1      -1.458   2.787   0.000  0.00  0.00    +0.000 A 
ATOM     29  C   UNL     1      -0.952   2.135   0.000  0.00  0.00    +0.000 A 
ATOM     30  C   UNL     1      -1.262   1.371   0.000  0.00  0.00    +0.000 A 
ATOM     31  O   UNL     1      -1.147   3.551   0.000  0.00  0.00    +0.000 OA
ENDBRANCH  23  25
ENDBRANCH  17  23
TORSDOF 3
