REMARK  Name = MUH
REMARK  5 active torsions:
REMARK  status: ('A' for Active; 'I' for Inactive)
REMARK    1  A    between atoms: C_1  and  N_8
REMARK    2  A    between atoms: C_3  and  N_20
REMARK    3  A    between atoms: C_9  and  C_11
REMARK    4  A    between atoms: C_13  and  C_16
REMARK    5  A    between atoms: C_21  and  C_32
REMARK                            x       y       z     vdW  Elec       q    Type
REMARK                         _______ _______ _______ _____ _____    ______ ____
ROOT
ATOM      1  C   UNL     1       4.318  -1.245   0.000  0.00  0.00    +0.000 A 
ATOM      2  C   UNL     1       3.603  -1.658   0.000  0.00  0.00    +0.000 A 
ATOM      3  C   UNL     1       3.603  -2.483   0.000  0.00  0.00    +0.000 A 
ATOM      4  C   UNL     1       4.318  -2.895   0.000  0.00  0.00    +0.000 A 
ATOM      5  C   UNL     1       5.032  -2.483   0.000  0.00  0.00    +0.000 A 
ATOM      6  C   UNL     1       5.032  -1.658   0.000  0.00  0.00    +0.000 A 
ATOM      7  C   UNL     1       4.318  -3.720   0.000  0.00  0.00    +0.000 C 
ENDROOT
BRANCH   3   8
ATOM      8  N   UNL     1       2.889  -2.895   0.000  0.00  0.00    +0.000 NA
ATOM      9  C   UNL     1       2.174  -4.133   0.000  0.00  0.00    +0.000 A 
ATOM     10  C   UNL     1       2.174  -4.958   0.000  0.00  0.00    +0.000 A 
ATOM     11  C   UNL     1       2.889  -5.370   0.000  0.00  0.00    +0.000 A 
ATOM     12  C   UNL     1       3.603  -4.958   0.000  0.00  0.00    +0.000 A 
ATOM     13  N   UNL     1       3.603  -4.133   0.000  0.00  0.00    +0.000 NA
ATOM     14  C   UNL     1       2.889  -3.720   0.000  0.00  0.00    +0.000 A 
BRANCH   9  20
ATOM     15  C   UNL     1       1.460  -2.895   0.000  0.00  0.00    +0.000 A 
ATOM     16  C   UNL     1       0.746  -2.483   0.000  0.00  0.00    +0.000 A 
ATOM     17  N   UNL     1       0.031  -2.895   0.000  0.00  0.00    +0.000 NA
ATOM     18  C   UNL     1       0.031  -3.720   0.000  0.00  0.00    +0.000 A 
ATOM     19  N   UNL     1       0.746  -4.133   0.000  0.00  0.00    +0.000 NA
ATOM     20  C   UNL     1       1.460  -3.720   0.000  0.00  0.00    +0.000 A 
ENDBRANCH   9  20
ENDBRANCH   3   8
BRANCH   1  21
ATOM     21  N   UNL     1       4.318  -0.420   0.000  0.00  0.00    +0.000 NA
ATOM     22  C   UNL     1       5.032  -0.008   0.000  0.00  0.00    +0.000 C 
ATOM     23  O   UNL     1       5.747  -0.420   0.000  0.00  0.00    +0.000 OA
BRANCH  22  25
ATOM     24  C   UNL     1       4.318   1.230   0.000  0.00  0.00    +0.000 A 
ATOM     25  C   UNL     1       5.032   0.817   0.000  0.00  0.00    +0.000 A 
ATOM     26  C   UNL     1       5.747   1.230   0.000  0.00  0.00    +0.000 A 
ATOM     27  C   UNL     1       5.747   2.055   0.000  0.00  0.00    +0.000 A 
ATOM     28  C   UNL     1       5.032   2.467   0.000  0.00  0.00    +0.000 A 
ATOM     29  C   UNL     1       4.318   2.055   0.000  0.00  0.00    +0.000 A 
BRANCH  27  30
ATOM     30  C   UNL     1       6.461   2.467   0.000  0.00  0.00    +0.000 C 
ATOM     31  F   UNL     1       7.176   2.880   0.000  0.00  0.00    +0.000 F 
ATOM     32  F   UNL     1       6.049   3.182   0.000  0.00  0.00    +0.000 F 
ATOM     33  F   UNL     1       6.874   1.753   0.000  0.00  0.00    +0.000 F 
ENDBRANCH  27  30
ENDBRANCH  22  25
ENDBRANCH   1  21
TORSDOF 5
