REMARK  Name = MUV
REMARK  13 active torsions:
REMARK  status: ('A' for Active; 'I' for Inactive)
REMARK    1  A    between atoms: C_2  and  C_5
REMARK    2  A    between atoms: C_5  and  C_6
REMARK    3  A    between atoms: C_6  and  C_7
REMARK    4  A    between atoms: N_9  and  C_10
REMARK    5  A    between atoms: C_10  and  C_11
REMARK    6  A    between atoms: C_10  and  C_18
REMARK    7  A    between atoms: C_11  and  C_12
REMARK    8  A    between atoms: C_18  and  C_20
REMARK    9  A    between atoms: C_20  and  N_21
REMARK   10  A    between atoms: N_21  and  C_22
REMARK   11  A    between atoms: N_21  and  S_26
REMARK   12  A    between atoms: C_22  and  C_23
REMARK   13  A    between atoms: S_26  and  C_29
REMARK                            x       y       z     vdW  Elec       q    Type
REMARK                         _______ _______ _______ _____ _____    ______ ____
ROOT
ATOM      1  C   UNL     1      -0.472   0.029   0.000  0.00  0.00    +0.000 C 
ENDROOT
BRANCH   1   4
ATOM      2  C   UNL     1      -1.901   0.029   0.000  0.00  0.00    +0.000 C 
ATOM      3  O   UNL     1      -1.901  -0.796   0.000  0.00  0.00    +0.000 OA
ATOM      4  N   UNL     1      -1.186   0.441   0.000  0.00  0.00    +0.000 NA
BRANCH   2   5
ATOM      5  C   UNL     1      -2.615   0.441   0.000  0.00  0.00    +0.000 C 
BRANCH   5   6
ATOM      6  C   UNL     1      -3.330   0.029   0.000  0.00  0.00    +0.000 C 
BRANCH   6   8
ATOM      7  O   UNL     1      -4.044   1.266   0.000  0.00  0.00    +0.000 OA
ATOM      8  C   UNL     1      -4.044   0.441   0.000  0.00  0.00    +0.000 C 
ATOM      9  N   UNL     1      -4.758   0.029   0.000  0.00  0.00    +0.000 NA
ATOM     10  C   UNL     1      -5.473   0.441   0.000  0.00  0.00    +0.000 C 
ENDBRANCH   6   8
ENDBRANCH   5   6
ENDBRANCH   2   5
ENDBRANCH   1   4
BRANCH   1  11
ATOM     11  C   UNL     1       0.243   0.441   0.000  0.00  0.00    +0.000 C 
ATOM     12  O   UNL     1       0.243   1.266   0.000  0.00  0.00    +0.000 OA
BRANCH  11  13
ATOM     13  C   UNL     1       0.957   0.029   0.000  0.00  0.00    +0.000 C 
BRANCH  13  14
ATOM     14  N   UNL     1       1.672   0.441   0.000  0.00  0.00    +0.000 NA
BRANCH  14  15
ATOM     15  S   UNL     1       2.386   0.029   0.000  0.00  0.00    +0.000 S 
ATOM     16  O   UNL     1       1.974  -0.686   0.000  0.00  0.00    +0.000 OA
ATOM     17  O   UNL     1       2.799   0.743   0.000  0.00  0.00    +0.000 OA
BRANCH  15  18
ATOM     18  C   UNL     1       3.101  -0.384   0.000  0.00  0.00    +0.000 A 
ATOM     19  O   UNL     1       3.854  -0.048   0.000  0.00  0.00    +0.000 OA
ATOM     20  C   UNL     1       4.406  -0.661   0.000  0.00  0.00    +0.000 A 
ATOM     21  C   UNL     1       3.994  -1.376   0.000  0.00  0.00    +0.000 A 
ATOM     22  C   UNL     1       3.187  -1.204   0.000  0.00  0.00    +0.000 A 
ENDBRANCH  15  18
ENDBRANCH  14  15
BRANCH  14  23
ATOM     23  C   UNL     1       1.672   1.266   0.000  0.00  0.00    +0.000 C 
BRANCH  23  24
ATOM     24  C   UNL     1       2.386   1.679   0.000  0.00  0.00    +0.000 C 
ATOM     25  C   UNL     1       2.799   2.393   0.000  0.00  0.00    +0.000 C 
ATOM     26  C   UNL     1       3.211   1.679   0.000  0.00  0.00    +0.000 C 
ENDBRANCH  23  24
ENDBRANCH  14  23
ENDBRANCH  13  14
ENDBRANCH  11  13
ENDBRANCH   1  11
BRANCH   1  27
ATOM     27  C   UNL     1      -0.472  -0.796   0.000  0.00  0.00    +0.000 C 
BRANCH  27  28
ATOM     28  C   UNL     1       0.243  -1.209   0.000  0.00  0.00    +0.000 A 
ATOM     29  C   UNL     1       0.957  -0.796   0.000  0.00  0.00    +0.000 A 
ATOM     30  C   UNL     1       1.672  -1.209   0.000  0.00  0.00    +0.000 A 
ATOM     31  C   UNL     1       1.672  -2.034   0.000  0.00  0.00    +0.000 A 
ATOM     32  C   UNL     1       0.957  -2.446   0.000  0.00  0.00    +0.000 A 
ATOM     33  C   UNL     1       0.243  -2.034   0.000  0.00  0.00    +0.000 A 
ENDBRANCH  27  28
ENDBRANCH   1  27
TORSDOF 13
