REMARK  Name = MVB
REMARK  3 active torsions:
REMARK  status: ('A' for Active; 'I' for Inactive)
REMARK    1  A    between atoms: C_6  and  C_11
REMARK    2  A    between atoms: C_11  and  C_12
REMARK    3  A    between atoms: C_12  and  C_13
REMARK                            x       y       z     vdW  Elec       q    Type
REMARK                         _______ _______ _______ _____ _____    ______ ____
ROOT
ATOM      1  O   UNL     1       1.630   0.122   0.000  0.00  0.00    +0.000 OA
ATOM      2  C   UNL     1      -1.228  -0.703   0.000  0.00  0.00    +0.000 C 
ATOM      3  C   UNL     1       0.201  -0.703   0.000  0.00  0.00    +0.000 C 
ATOM      4  C   UNL     1      -0.513  -1.115   0.000  0.00  0.00    +0.000 C 
ATOM      5  C   UNL     1      -0.513  -1.940   0.000  0.00  0.00    +0.000 C 
ATOM      6  C   UNL     1       0.201  -2.353   0.000  0.00  0.00    +0.000 C 
ATOM      7  C   UNL     1       0.916  -1.940   0.000  0.00  0.00    +0.000 C 
ATOM      8  C   UNL     1       0.916  -1.115   0.000  0.00  0.00    +0.000 C 
ATOM      9  C   UNL     1       1.630  -0.703   0.000  0.00  0.00    +0.000 C 
ATOM     10  C   UNL     1       2.345  -1.115   0.000  0.00  0.00    +0.000 C 
ATOM     11  C   UNL     1       2.345  -1.940   0.000  0.00  0.00    +0.000 C 
ATOM     12  C   UNL     1       1.630  -2.353   0.000  0.00  0.00    +0.000 C 
ENDROOT
BRANCH   3  13
ATOM     13  C   UNL     1       0.201   0.122   0.000  0.00  0.00    +0.000 C 
BRANCH  13  14
ATOM     14  C   UNL     1      -0.513   0.535   0.000  0.00  0.00    +0.000 C 
BRANCH  14  19
ATOM     15  O   UNL     1      -1.942   3.010   0.000  0.00  0.00    +0.000 OA
ATOM     16  C   UNL     1       0.201   2.597   0.000  0.00  0.00    +0.000 C 
ATOM     17  O   UNL     1       0.916   3.010   0.000  0.00  0.00    +0.000 OA
ATOM     18  O   UNL     1       0.201   1.772   0.000  0.00  0.00    +0.000 OA
ATOM     19  C   UNL     1      -0.513   1.360   0.000  0.00  0.00    +0.000 C 
ATOM     20  C   UNL     1      -1.228   1.772   0.000  0.00  0.00    +0.000 C 
ATOM     21  C   UNL     1      -1.228   2.597   0.000  0.00  0.00    +0.000 C 
ATOM     22  C   UNL     1      -0.513   3.010   0.000  0.00  0.00    +0.000 C 
ENDBRANCH  14  19
ENDBRANCH  13  14
ENDBRANCH   3  13
TORSDOF 3
