REMARK  Name = MXA
REMARK  4 active torsions:
REMARK  status: ('A' for Active; 'I' for Inactive)
REMARK    1  A    between atoms: C_10  and  C_14
REMARK    2  A    between atoms: C_14  and  C_15
REMARK    3  A    between atoms: C_16  and  O_17
REMARK    4  A    between atoms: C_21  and  O_22
REMARK                            x       y       z     vdW  Elec       q    Type
REMARK                         _______ _______ _______ _____ _____    ______ ____
ROOT
ATOM      1  N   UNL     1      -1.750  -2.363   0.000  0.00  0.00    +0.000 NA
ATOM      2  C   UNL     1      -2.464  -1.951   0.000  0.00  0.00    +0.000 A 
ATOM      3  N   UNL     1      -3.178  -2.363   0.000  0.00  0.00    +0.000 NA
ATOM      4  N   UNL     1      -2.464  -1.126   0.000  0.00  0.00    +0.000 NA
ATOM      5  C   UNL     1      -1.750  -0.713   0.000  0.00  0.00    +0.000 A 
ATOM      6  N   UNL     1      -1.750   0.112   0.000  0.00  0.00    +0.000 NA
ATOM      7  C   UNL     1      -1.035  -1.126   0.000  0.00  0.00    +0.000 A 
ATOM      8  C   UNL     1      -0.321  -0.713   0.000  0.00  0.00    +0.000 A 
ATOM      9  C   UNL     1      -0.321   0.112   0.000  0.00  0.00    +0.000 C 
ATOM     10  C   UNL     1       0.394  -1.126   0.000  0.00  0.00    +0.000 A 
ATOM     11  C   UNL     1       0.394  -1.951   0.000  0.00  0.00    +0.000 A 
ATOM     12  N   UNL     1      -0.321  -2.363   0.000  0.00  0.00    +0.000 NA
ATOM     13  C   UNL     1      -1.035  -1.951   0.000  0.00  0.00    +0.000 A 
ENDROOT
BRANCH  10  14
ATOM     14  C   UNL     1       1.108  -0.713   0.000  0.00  0.00    +0.000 C 
BRANCH  14  15
ATOM     15  C   UNL     1       1.108   0.112   0.000  0.00  0.00    +0.000 A 
ATOM     16  C   UNL     1       1.823   0.524   0.000  0.00  0.00    +0.000 A 
ATOM     17  C   UNL     1       1.823   1.349   0.000  0.00  0.00    +0.000 A 
ATOM     18  C   UNL     1       1.108   1.762   0.000  0.00  0.00    +0.000 A 
ATOM     19  C   UNL     1       0.394   1.349   0.000  0.00  0.00    +0.000 A 
ATOM     20  C   UNL     1       0.394   0.524   0.000  0.00  0.00    +0.000 A 
BRANCH  16  21
ATOM     21  O   UNL     1       2.537   0.112   0.000  0.00  0.00    +0.000 OA
ATOM     22  C   UNL     1       3.252   0.524   0.000  0.00  0.00    +0.000 C 
ENDBRANCH  16  21
BRANCH  19  23
ATOM     23  O   UNL     1      -0.321   1.762   0.000  0.00  0.00    +0.000 OA
ATOM     24  C   UNL     1      -0.321   2.587   0.000  0.00  0.00    +0.000 C 
ENDBRANCH  19  23
ENDBRANCH  14  15
ENDBRANCH  10  14
TORSDOF 4
