REMARK  Name = MXP
REMARK  12 active torsions:
REMARK  status: ('A' for Active; 'I' for Inactive)
REMARK    1  A    between atoms: N_3  and  C_25
REMARK    2  A    between atoms: C_5  and  C_9
REMARK    3  A    between atoms: C_8  and  C_21
REMARK    4  A    between atoms: C_9  and  C_10
REMARK    5  A    between atoms: C_12  and  C_13
REMARK    6  A    between atoms: C_14  and  C_15
REMARK    7  A    between atoms: C_15  and  C_16
REMARK    8  A    between atoms: C_16  and  C_17
REMARK    9  A    between atoms: C_21  and  C_22
REMARK   10  A    between atoms: C_22  and  C_23
REMARK   11  A    between atoms: C_23  and  C_24
REMARK   12  A    between atoms: C_26  and  O_29
REMARK                            x       y       z     vdW  Elec       q    Type
REMARK                         _______ _______ _______ _____ _____    ______ ____
ROOT
ATOM      1  O   UNL     1       0.141   1.028   0.000  0.00  0.00    +0.000 OA
ATOM      2  C   UNL     1      -1.288   1.028   0.000  0.00  0.00    +0.000 A 
ATOM      3  C   UNL     1      -1.288   0.203   0.000  0.00  0.00    +0.000 A 
ATOM      4  C   UNL     1      -0.573  -0.210   0.000  0.00  0.00    +0.000 A 
ATOM      5  O   UNL     1      -2.002  -0.210   0.000  0.00  0.00    +0.000 OA
ATOM      6  C   UNL     1       0.141   0.203   0.000  0.00  0.00    +0.000 A 
ATOM      7  C   UNL     1      -0.573   1.440   0.000  0.00  0.00    +0.000 A 
ATOM      8  O   UNL     1       0.856  -0.210   0.000  0.00  0.00    +0.000 OA
ENDROOT
BRANCH   4   9
ATOM      9  C   UNL     1      -0.573  -1.035   0.000  0.00  0.00    +0.000 C 
ATOM     10  O   UNL     1      -1.288  -1.447   0.000  0.00  0.00    +0.000 OA
BRANCH   9  11
ATOM     11  C   UNL     1       0.141  -1.447   0.000  0.00  0.00    +0.000 C 
ATOM     12  C   UNL     1       0.141  -2.272   0.000  0.00  0.00    +0.000 C 
ATOM     13  C   UNL     1       0.856  -1.035   0.000  0.00  0.00    +0.000 C 
BRANCH  12  14
ATOM     14  C   UNL     1       0.856  -2.685   0.000  0.00  0.00    +0.000 C 
ATOM     15  C   UNL     1       0.856  -3.510   0.000  0.00  0.00    +0.000 C 
ATOM     16  C   UNL     1       0.141  -3.922   0.000  0.00  0.00    +0.000 C 
BRANCH  15  17
ATOM     17  C   UNL     1       1.570  -3.922   0.000  0.00  0.00    +0.000 C 
BRANCH  17  18
ATOM     18  C   UNL     1       1.570  -4.747   0.000  0.00  0.00    +0.000 C 
BRANCH  18  19
ATOM     19  C   UNL     1       2.285  -5.160   0.000  0.00  0.00    +0.000 C 
ATOM     20  C   UNL     1       2.285  -5.985   0.000  0.00  0.00    +0.000 C 
ENDBRANCH  18  19
ENDBRANCH  17  18
ENDBRANCH  15  17
ENDBRANCH  12  14
ENDBRANCH   9  11
ENDBRANCH   4   9
BRANCH   7  21
ATOM     21  C   UNL     1      -0.573   2.265   0.000  0.00  0.00    +0.000 C 
BRANCH  21  22
ATOM     22  C   UNL     1      -1.288   2.678   0.000  0.00  0.00    +0.000 C 
BRANCH  22  23
ATOM     23  C   UNL     1      -1.288   3.503   0.000  0.00  0.00    +0.000 C 
BRANCH  23  24
ATOM     24  C   UNL     1      -2.002   3.915   0.000  0.00  0.00    +0.000 C 
ATOM     25  C   UNL     1      -2.002   4.740   0.000  0.00  0.00    +0.000 C 
BRANCH  25  26
ATOM     26  N   UNL     1      -2.717   5.153   0.000  0.00  0.00    +0.000 NA
ATOM     27  C   UNL     1      -3.431   4.740   0.000  0.00  0.00    +0.000 C 
ATOM     28  O   UNL     1      -3.431   3.915   0.000  0.00  0.00    +0.000 OA
BRANCH  27  30
ATOM     29  C   UNL     1      -4.146   5.978   0.000  0.00  0.00    +0.000 C 
ATOM     30  O   UNL     1      -4.146   5.153   0.000  0.00  0.00    +0.000 OA
ENDBRANCH  27  30
ENDBRANCH  25  26
ENDBRANCH  23  24
ENDBRANCH  22  23
ENDBRANCH  21  22
ENDBRANCH   7  21
TORSDOF 12
