REMARK  Name = MXX
REMARK  2 active torsions:
REMARK  status: ('A' for Active; 'I' for Inactive)
REMARK    1  A    between atoms: C_6  and  O_7
REMARK    2  A    between atoms: C_11  and  O_12
REMARK                            x       y       z     vdW  Elec       q    Type
REMARK                         _______ _______ _______ _____ _____    ______ ____
ROOT
ATOM      1  O   UNL     1      -2.051  -0.981   0.000  0.00  0.00    +0.000 OA
ATOM      2  C   UNL     1      -1.336  -0.568   0.000  0.00  0.00    +0.000 A 
ATOM      3  N   UNL     1      -0.622  -0.981   0.000  0.00  0.00    +0.000 N 
ATOM      4  C   UNL     1      -0.622  -1.806   0.000  0.00  0.00    +0.000 C 
ATOM      5  C   UNL     1       0.093  -0.568   0.000  0.00  0.00    +0.000 A 
ATOM      6  C   UNL     1       0.807  -0.981   0.000  0.00  0.00    +0.000 A 
ATOM      7  C   UNL     1       1.522  -0.568   0.000  0.00  0.00    +0.000 A 
ATOM      8  C   UNL     1       1.522   0.257   0.000  0.00  0.00    +0.000 A 
ATOM      9  C   UNL     1       0.807   0.669   0.000  0.00  0.00    +0.000 A 
ATOM     10  C   UNL     1       0.093   0.257   0.000  0.00  0.00    +0.000 A 
ATOM     11  C   UNL     1      -0.622   0.669   0.000  0.00  0.00    +0.000 A 
ATOM     12  C   UNL     1      -0.622   1.494   0.000  0.00  0.00    +0.000 C 
ATOM     13  C   UNL     1      -1.336   0.257   0.000  0.00  0.00    +0.000 A 
ENDROOT
BRANCH   6  14
ATOM     14  O   UNL     1       0.807  -1.806   0.000  0.00  0.00    +0.000 OA
ATOM     15  C   UNL     1       1.522  -2.218   0.000  0.00  0.00    +0.000 C 
ENDBRANCH   6  14
BRANCH   9  16
ATOM     16  O   UNL     1       0.807   1.494   0.000  0.00  0.00    +0.000 OA
ATOM     17  C   UNL     1       0.093   1.907   0.000  0.00  0.00    +0.000 C 
ENDBRANCH   9  16
TORSDOF 2
