REMARK  Name = MYE
REMARK  12 active torsions:
REMARK  status: ('A' for Active; 'I' for Inactive)
REMARK    1  A    between atoms: C_1  and  C_2
REMARK    2  A    between atoms: C_2  and  C_3
REMARK    3  A    between atoms: C_3  and  CA_4
REMARK    4  A    between atoms: CA_4  and  N_5
REMARK    5  A    between atoms: CA_4  and  C_25
REMARK    6  A    between atoms: C_6  and  CA_8
REMARK    7  A    between atoms: CA_8  and  CB_9
REMARK    8  A    between atoms: CA_8  and  N_13
REMARK    9  A    between atoms: CB_9  and  CG_10
REMARK   10  A    between atoms: C_14  and  O_16
REMARK   11  A    between atoms: O_16  and  C_17
REMARK   12  A    between atoms: C_17  and  C_18
REMARK                            x       y       z     vdW  Elec       q    Type
REMARK                         _______ _______ _______ _____ _____    ______ ____
ROOT
ATOM      1  CA  LEU A   1       0.122  -1.301   0.000  0.00  0.00    +0.000 C 
ENDROOT
BRANCH   1   2
ATOM      2  N   LEU A   1       0.836  -1.714   0.000  0.00  0.00    +0.000 NA
ATOM      3  C   UNK A   0       1.551  -1.301   0.000  0.00  0.00    +0.000 C 
ATOM      4  O   UNK A   0       1.551  -0.476   0.000  0.00  0.00    +0.000 OA
BRANCH   3   5
ATOM      5  O   UNK A   0       2.265  -1.714   0.000  0.00  0.00    +0.000 OA
BRANCH   5   6
ATOM      6  C   UNK A   0       2.980  -1.301   0.000  0.00  0.00    +0.000 C 
BRANCH   6   7
ATOM      7  C   UNK A   0       3.694  -1.714   0.000  0.00  0.00    +0.000 A 
ATOM      8  C   UNK A   0       4.409  -1.301   0.000  0.00  0.00    +0.000 A 
ATOM      9  C   UNK A   0       5.123  -1.714   0.000  0.00  0.00    +0.000 A 
ATOM     10  C   UNK A   0       5.123  -2.539   0.000  0.00  0.00    +0.000 A 
ATOM     11 BR   UNK A   0       5.838  -2.951   0.000  0.00  0.00    +0.000 Br
ATOM     12  C   UNK A   0       4.409  -2.951   0.000  0.00  0.00    +0.000 A 
ATOM     13  C   UNK A   0       3.694  -2.539   0.000  0.00  0.00    +0.000 A 
ENDBRANCH   6   7
ENDBRANCH   5   6
ENDBRANCH   3   5
ENDBRANCH   1   2
BRANCH   1  15
ATOM     14  N   LEU A   1      -1.307  -1.301   0.000  0.00  0.00    +0.000 NA
ATOM     15  C   LEU A   1      -0.593  -1.714   0.000  0.00  0.00    +0.000 C 
ATOM     16  O   LEU A   1      -0.593  -2.539   0.000  0.00  0.00    +0.000 OA
BRANCH  14  17
ATOM     17  CA  LEU A   1      -2.022  -1.714   0.000  0.00  0.00    +0.000 C 
BRANCH  17  18
ATOM     18  C   LEU A   1      -2.022  -2.539   0.000  0.00  0.00    +0.000 C 
ATOM     19  O   LEU A   1      -1.307  -2.951   0.000  0.00  0.00    +0.000 OA
ENDBRANCH  17  18
BRANCH  17  20
ATOM     20  C   LEU A   1      -2.736  -1.301   0.000  0.00  0.00    +0.000 C 
BRANCH  20  21
ATOM     21  C   LEU A   1      -3.451  -1.714   0.000  0.00  0.00    +0.000 C 
BRANCH  21  22
ATOM     22  C   LEU A   1      -4.165  -1.301   0.000  0.00  0.00    +0.000 C 
ATOM     23  C   LEU A   1      -4.880  -1.714   0.000  0.00  0.00    +0.000 C 
ENDBRANCH  21  22
ENDBRANCH  20  21
ENDBRANCH  17  20
ENDBRANCH  14  17
ENDBRANCH   1  15
BRANCH   1  24
ATOM     24  CB  LEU A   1       0.122  -0.476   0.000  0.00  0.00    +0.000 C 
BRANCH  24  25
ATOM     25  CG  LEU A   1      -0.593  -0.064   0.000  0.00  0.00    +0.000 C 
ATOM     26  CD1 LEU A   1      -1.307  -0.476   0.000  0.00  0.00    +0.000 C 
ATOM     27  CD2 LEU A   1      -0.593   0.761   0.000  0.00  0.00    +0.000 C 
ENDBRANCH  24  25
ENDBRANCH   1  24
TORSDOF 12
