REMARK  Name = N-Acetyl-L-alanine.mol
REMARK  2 active torsions:
REMARK  status: ('A' for Active; 'I' for Inactive)
REMARK    1  A    between atoms: C_1  and  CA_3
REMARK    2  A    between atoms: N_2  and  CA_3
REMARK                            x       y       z     vdW  Elec       q    Type
REMARK                         _______ _______ _______ _____ _____    ______ ____
ROOT
ATOM      1  CA  ALA A   1      -0.357  -0.206   0.000  0.00  0.00    +0.000 C 
ATOM      2  CB  ALA A   1      -0.357  -1.031   0.000  0.00  0.00    +0.000 C 
ENDROOT
BRANCH   1   3
ATOM      3  N   ALA A   1       0.357   0.206   0.000  0.00  0.00    +0.000 NA
ATOM      4  C   UNK A   0       1.072  -0.206   0.000  0.00  0.00    +0.000 C 
ATOM      5  O   UNK A   0       1.072  -1.031   0.000  0.00  0.00    +0.000 OA
ATOM      6  C   UNK A   0       1.786   0.206   0.000  0.00  0.00    +0.000 C 
ENDBRANCH   1   3
BRANCH   1   7
ATOM      7  C   ALA A   1      -1.072   0.206   0.000  0.00  0.00    +0.000 C 
ATOM      8  O   ALA A   1      -1.072   1.031   0.000  0.00  0.00    +0.000 OA
ATOM      9  OXT ALA A   1      -1.786  -0.206   0.000  0.00  0.00    +0.000 OA
ENDBRANCH   1   7
TORSDOF 2
