REMARK  Name = N-acetylneuraminic acid.mol
REMARK  5 active torsions:
REMARK  status: ('A' for Active; 'I' for Inactive)
REMARK    1  A    between atoms: C_1  and  C_2
REMARK    2  A    between atoms: C_5  and  C_6
REMARK    3  A    between atoms: C_6  and  C_8
REMARK    4  A    between atoms: C_8  and  C_10
REMARK    5  A    between atoms: C_12  and  N_13
REMARK                            x       y       z     vdW  Elec       q    Type
REMARK                         _______ _______ _______ _____ _____    ______ ____
ROOT
ATOM      1  C   UNL     1       1.239   0.946   0.000  0.00  0.00    +0.000 C 
ATOM      2  O   UNL     1       2.051   0.803   0.000  0.00  0.00    +0.000 OA
ATOM      3  O   UNL     1       1.239   0.121   0.000  0.00  0.00    +0.000 OA
ATOM      4  C   UNL     1       0.524  -0.291   0.000  0.00  0.00    +0.000 C 
ATOM      5  C   UNL     1      -0.190   0.121   0.000  0.00  0.00    +0.000 C 
ATOM      6  C   UNL     1      -0.190   0.946   0.000  0.00  0.00    +0.000 C 
ATOM      7  O   UNL     1      -0.905   1.359   0.000  0.00  0.00    +0.000 OA
ATOM      8  C   UNL     1       0.524   1.359   0.000  0.00  0.00    +0.000 C 
ENDROOT
BRANCH   5   9
ATOM      9  N   UNL     1      -0.905  -0.291   0.000  0.00  0.00    +0.000 NA
ATOM     10  C   UNL     1      -1.619   0.121   0.000  0.00  0.00    +0.000 C 
ATOM     11  O   UNL     1      -1.619   0.946   0.000  0.00  0.00    +0.000 OA
ATOM     12  C   UNL     1      -2.333  -0.291   0.000  0.00  0.00    +0.000 C 
ENDBRANCH   5   9
BRANCH   1  13
ATOM     13  C   UNL     1       1.521   1.722   0.000  0.00  0.00    +0.000 C 
ATOM     14  O   UNL     1       2.333   1.865   0.000  0.00  0.00    +0.000 OA
ATOM     15  O   UNL     1       0.991   2.354   0.000  0.00  0.00    +0.000 OA
ENDBRANCH   1  13
BRANCH   4  16
ATOM     16  C   UNL     1       0.524  -1.116   0.000  0.00  0.00    +0.000 C 
ATOM     17  O   UNL     1      -0.190  -1.529   0.000  0.00  0.00    +0.000 OA
BRANCH  16  18
ATOM     18  C   UNL     1       1.239  -1.529   0.000  0.00  0.00    +0.000 C 
ATOM     19  O   UNL     1       1.239  -2.354   0.000  0.00  0.00    +0.000 OA
BRANCH  18  20
ATOM     20  C   UNL     1       1.953  -1.116   0.000  0.00  0.00    +0.000 C 
ATOM     21  O   UNL     1       1.953  -0.291   0.000  0.00  0.00    +0.000 OA
ENDBRANCH  18  20
ENDBRANCH  16  18
ENDBRANCH   4  16
TORSDOF 5
