REMARK  Name = N20
REMARK  4 active torsions:
REMARK  status: ('A' for Active; 'I' for Inactive)
REMARK    1  A    between atoms: C_4  and  C_5
REMARK    2  A    between atoms: C_4  and  O_17
REMARK    3  A    between atoms: C_16  and  O_17
REMARK    4  A    between atoms: N_23  and  C_24
REMARK                            x       y       z     vdW  Elec       q    Type
REMARK                         _______ _______ _______ _____ _____    ______ ____
ROOT
ATOM      1  C   UNL     1      -0.088   1.223   0.000  0.00  0.00    +0.000 A 
ATOM      2  C   UNL     1      -2.786   0.811   0.000  0.00  0.00    +0.000 A 
ATOM      3  N   UNL     1      -0.088   0.398   0.000  0.00  0.00    +0.000 NA
ATOM      4  C   UNL     1      -0.802  -0.014   0.000  0.00  0.00    +0.000 A 
ATOM      5  C   UNL     1      -1.516   0.398   0.000  0.00  0.00    +0.000 A 
ATOM      6  N   UNL     1      -2.301   0.143   0.000  0.00  0.00    +0.000 NA
ATOM      7  N   UNL     1      -2.301   1.478   0.000  0.00  0.00    +0.000 NA
ATOM      8  C   UNL     1      -1.516   1.223   0.000  0.00  0.00    +0.000 A 
ATOM      9  N   UNL     1      -0.802   1.636   0.000  0.00  0.00    +0.000 NA
ATOM     10  N   UNL     1       0.627   1.636   0.000  0.00  0.00    +0.000 NA
ENDROOT
BRANCH  10  16
ATOM     11  O   UNL     1       0.627   4.936   0.000  0.00  0.00    +0.000 OA
ATOM     12  C   UNL     1      -0.088   3.698   0.000  0.00  0.00    +0.000 A 
ATOM     13  C   UNL     1       0.627   4.111   0.000  0.00  0.00    +0.000 A 
ATOM     14  C   UNL     1       1.341   3.698   0.000  0.00  0.00    +0.000 A 
ATOM     15  C   UNL     1       1.341   2.873   0.000  0.00  0.00    +0.000 A 
ATOM     16  C   UNL     1       0.627   2.461   0.000  0.00  0.00    +0.000 A 
ATOM     17  C   UNL     1      -0.088   2.873   0.000  0.00  0.00    +0.000 A 
ENDBRANCH  10  16
BRANCH   4  18
ATOM     18  O   UNL     1      -0.802  -0.839   0.000  0.00  0.00    +0.000 OA
BRANCH  18  19
ATOM     19  C   UNL     1      -0.088  -1.252   0.000  0.00  0.00    +0.000 C 
BRANCH  19  20
ATOM     20  C   UNL     1      -0.088  -2.077   0.000  0.00  0.00    +0.000 C 
ATOM     21  C   UNL     1       0.627  -2.489   0.000  0.00  0.00    +0.000 C 
ATOM     22  C   UNL     1       0.627  -3.314   0.000  0.00  0.00    +0.000 C 
ATOM     23  C   UNL     1      -0.088  -3.727   0.000  0.00  0.00    +0.000 C 
ATOM     24  C   UNL     1      -0.802  -3.314   0.000  0.00  0.00    +0.000 C 
ATOM     25  C   UNL     1      -0.802  -2.489   0.000  0.00  0.00    +0.000 C 
ENDBRANCH  19  20
ENDBRANCH  18  19
ENDBRANCH   4  18
TORSDOF 4
