REMARK  Name = N22
REMARK  6 active torsions:
REMARK  status: ('A' for Active; 'I' for Inactive)
REMARK    1  A    between atoms: C_2  and  C_3
REMARK    2  A    between atoms: C_10  and  C_11
REMARK    3  A    between atoms: C_12  and  C_13
REMARK    4  A    between atoms: C_13  and  C_14
REMARK    5  A    between atoms: C_16  and  O_17
REMARK    6  A    between atoms: C_21  and  O_22
REMARK                            x       y       z     vdW  Elec       q    Type
REMARK                         _______ _______ _______ _____ _____    ______ ____
ROOT
ATOM      1  C   UNL     1       0.292  -0.967   0.000  0.00  0.00    +0.000 C 
ATOM      2  C   UNL     1      -0.422  -0.554   0.000  0.00  0.00    +0.000 C 
ENDROOT
BRANCH   1  10
ATOM      3  C   UNL     1       1.721  -0.967   0.000  0.00  0.00    +0.000 A 
ATOM      4  N   UNL     1       2.435  -1.379   0.000  0.00  0.00    +0.000 NA
ATOM      5  C   UNL     1       2.435  -2.204   0.000  0.00  0.00    +0.000 A 
ATOM      6  N   UNL     1       3.150  -2.617   0.000  0.00  0.00    +0.000 NA
ATOM      7  N   UNL     1       1.721  -2.617   0.000  0.00  0.00    +0.000 NA
ATOM      8  C   UNL     1       1.006  -2.204   0.000  0.00  0.00    +0.000 A 
ATOM      9  N   UNL     1       0.292  -2.617   0.000  0.00  0.00    +0.000 NA
ATOM     10  C   UNL     1       1.006  -1.379   0.000  0.00  0.00    +0.000 A 
BRANCH   3  12
ATOM     11  C   UNL     1       1.006   0.271   0.000  0.00  0.00    +0.000 C 
ATOM     12  C   UNL     1       1.721  -0.142   0.000  0.00  0.00    +0.000 C 
ENDBRANCH   3  12
ENDBRANCH   1  10
BRANCH   2  13
ATOM     13  C   UNL     1      -1.137  -0.142   0.000  0.00  0.00    +0.000 C 
BRANCH  13  14
ATOM     14  C   UNL     1      -1.137   0.683   0.000  0.00  0.00    +0.000 A 
ATOM     15  C   UNL     1      -1.851   1.096   0.000  0.00  0.00    +0.000 A 
ATOM     16  C   UNL     1      -1.851   1.921   0.000  0.00  0.00    +0.000 A 
ATOM     17  C   UNL     1      -1.137   2.333   0.000  0.00  0.00    +0.000 A 
ATOM     18  C   UNL     1      -0.422   1.921   0.000  0.00  0.00    +0.000 A 
ATOM     19  C   UNL     1      -0.422   1.096   0.000  0.00  0.00    +0.000 A 
BRANCH  19  20
ATOM     20  O   UNL     1       0.292   0.683   0.000  0.00  0.00    +0.000 OA
ATOM     21  C   UNL     1       1.006   1.096   0.000  0.00  0.00    +0.000 C 
ENDBRANCH  19  20
BRANCH  16  22
ATOM     22  O   UNL     1      -2.566   2.333   0.000  0.00  0.00    +0.000 OA
ATOM     23  C   UNL     1      -3.280   1.921   0.000  0.00  0.00    +0.000 C 
ENDBRANCH  16  22
ENDBRANCH  13  14
ENDBRANCH   2  13
TORSDOF 6
