REMARK  Name = N23
REMARK  4 active torsions:
REMARK  status: ('A' for Active; 'I' for Inactive)
REMARK    1  A    between atoms: C_10  and  C_11
REMARK    2  A    between atoms: C_11  and  C_12
REMARK    3  A    between atoms: C_12  and  N_13
REMARK    4  A    between atoms: C_14  and  C_16
REMARK                            x       y       z     vdW  Elec       q    Type
REMARK                         _______ _______ _______ _____ _____    ______ ____
ROOT
ATOM      1  C   UNL     1      -1.806  -1.242   0.000  0.00  0.00    +0.000 C 
ATOM      2  C   UNL     1      -1.635  -0.435   0.000  0.00  0.00    +0.000 A 
ATOM      3  N   UNL     1      -2.187   0.178   0.000  0.00  0.00    +0.000 NA
ATOM      4  C   UNL     1      -1.774   0.892   0.000  0.00  0.00    +0.000 A 
ATOM      5  C   UNL     1      -2.029   1.677   0.000  0.00  0.00    +0.000 A 
ATOM      6  C   UNL     1      -1.477   2.290   0.000  0.00  0.00    +0.000 A 
ATOM      7  C   UNL     1      -0.670   2.119   0.000  0.00  0.00    +0.000 A 
ATOM      8  C   UNL     1      -0.415   1.334   0.000  0.00  0.00    +0.000 A 
ATOM      9  C   UNL     1      -0.967   0.721   0.000  0.00  0.00    +0.000 A 
ATOM     10  C   UNL     1      -0.881  -0.100   0.000  0.00  0.00    +0.000 A 
ENDROOT
BRANCH  10  11
ATOM     11  C   UNL     1      -0.167  -0.512   0.000  0.00  0.00    +0.000 C 
BRANCH  11  12
ATOM     12  C   UNL     1       0.548  -0.100   0.000  0.00  0.00    +0.000 C 
BRANCH  12  13
ATOM     13  N   UNL     1       1.262  -0.512   0.000  0.00  0.00    +0.000 NA
ATOM     14  C   UNL     1       1.977  -0.100   0.000  0.00  0.00    +0.000 C 
ATOM     15  O   UNL     1       1.977   0.725   0.000  0.00  0.00    +0.000 OA
BRANCH  14  16
ATOM     16  C   UNL     1       2.691  -0.512   0.000  0.00  0.00    +0.000 A 
ATOM     17  C   UNL     1       3.445  -0.177   0.000  0.00  0.00    +0.000 A 
ATOM     18  C   UNL     1       3.997  -0.790   0.000  0.00  0.00    +0.000 A 
ATOM     19  C   UNL     1       3.584  -1.504   0.000  0.00  0.00    +0.000 A 
ATOM     20  S   UNL     1       2.778  -1.333   0.000  0.00  0.00    +0.000 S 
ENDBRANCH  14  16
ENDBRANCH  12  13
ENDBRANCH  11  12
ENDBRANCH  10  11
TORSDOF 4
