REMARK  Name = N24
REMARK  2 active torsions:
REMARK  status: ('A' for Active; 'I' for Inactive)
REMARK    1  A    between atoms: C_7  and  C_8
REMARK    2  A    between atoms: N_13  and  C_14
REMARK                            x       y       z     vdW  Elec       q    Type
REMARK                         _______ _______ _______ _____ _____    ______ ____
ROOT
ATOM      1  C   UNL     1      -0.413  -0.392   0.000  0.00  0.00    +0.000 C 
ATOM      2  S   UNL     1      -1.080  -0.877   0.000  0.00  0.00    +0.000 S 
ATOM      3  C   UNL     1      -0.825  -1.661   0.000  0.00  0.00    +0.000 C 
ATOM      4  C   UNL     1      -0.000  -1.661   0.000  0.00  0.00    +0.000 C 
ATOM      5  O   UNL     1       0.485  -2.329   0.000  0.00  0.00    +0.000 OA
ATOM      6  N   UNL     1       0.255  -0.877   0.000  0.00  0.00    +0.000 N 
ENDROOT
BRANCH   6   7
ATOM      7  C   UNL     1       1.039  -0.622   0.000  0.00  0.00    +0.000 A 
ATOM      8  C   UNL     1       1.211   0.185   0.000  0.00  0.00    +0.000 A 
ATOM      9  C   UNL     1       1.995   0.440   0.000  0.00  0.00    +0.000 A 
ATOM     10  C   UNL     1       2.608  -0.112   0.000  0.00  0.00    +0.000 A 
ATOM     11  C   UNL     1       2.437  -0.919   0.000  0.00  0.00    +0.000 A 
ATOM     12  C   UNL     1       1.652  -1.174   0.000  0.00  0.00    +0.000 A 
ATOM     13  O   UNL     1       1.481  -1.981   0.000  0.00  0.00    +0.000 OA
ATOM     14 CL   UNL     1       2.167   1.247   0.000  0.00  0.00    +0.000 Cl
ENDBRANCH   6   7
BRANCH   1  21
ATOM     15  C   UNL     1       0.302   0.846   0.000  0.00  0.00    +0.000 A 
ATOM     16  C   UNL     1       0.302   1.671   0.000  0.00  0.00    +0.000 A 
ATOM     17 BR   UNL     1       1.016   2.083   0.000  0.00  0.00    +0.000 Br
ATOM     18  C   UNL     1      -0.413   2.083   0.000  0.00  0.00    +0.000 A 
ATOM     19  C   UNL     1      -1.127   1.671   0.000  0.00  0.00    +0.000 A 
ATOM     20  C   UNL     1      -1.127   0.846   0.000  0.00  0.00    +0.000 A 
ATOM     21  C   UNL     1      -0.413   0.433   0.000  0.00  0.00    +0.000 A 
ENDBRANCH   1  21
TORSDOF 2
