REMARK  Name = N2G
REMARK  6 active torsions:
REMARK  status: ('A' for Active; 'I' for Inactive)
REMARK    1  A    between atoms: P_1  and  O_5
REMARK    2  A    between atoms: O_5  and  C_33
REMARK    3  A    between atoms: C_15  and  C_16
REMARK    4  A    between atoms: C_16  and  N_17
REMARK    5  A    between atoms: N_27  and  C_28
REMARK    6  A    between atoms: C_32  and  C_33
REMARK                            x       y       z     vdW  Elec       q    Type
REMARK                         _______ _______ _______ _____ _____    ______ ____
ROOT
ATOM      1  N   UNL     1       2.044  -1.609   0.000  0.00  0.00    +0.000 NA
ATOM      2  C   UNL     1       1.329  -2.022   0.000  0.00  0.00    +0.000 A 
ATOM      3  N   UNL     1       1.329  -2.847   0.000  0.00  0.00    +0.000 NA
ATOM      4  C   UNL     1       0.615  -3.260   0.000  0.00  0.00    +0.000 A 
ATOM      5  O   UNL     1       0.615  -4.085   0.000  0.00  0.00    +0.000 OA
ATOM      6  N   UNL     1       0.615  -1.609   0.000  0.00  0.00    +0.000 NA
ATOM      7  C   UNL     1      -0.100  -2.022   0.000  0.00  0.00    +0.000 A 
ATOM      8  C   UNL     1      -0.100  -2.847   0.000  0.00  0.00    +0.000 A 
ATOM      9  N   UNL     1      -0.884  -3.102   0.000  0.00  0.00    +0.000 NA
ATOM     10  C   UNL     1      -1.369  -2.434   0.000  0.00  0.00    +0.000 A 
ATOM     11  N   UNL     1      -0.884  -1.767   0.000  0.00  0.00    +0.000 N 
ENDROOT
BRANCH  11  12
ATOM     12  C   UNL     1      -1.139  -0.982   0.000  0.00  0.00    +0.000 C 
ATOM     13  O   UNL     1      -1.924  -0.728   0.000  0.00  0.00    +0.000 OA
ATOM     14  C   UNL     1      -0.654  -0.315   0.000  0.00  0.00    +0.000 C 
ATOM     15  C   UNL     1      -1.139   0.352   0.000  0.00  0.00    +0.000 C 
ATOM     16  C   UNL     1      -1.924   0.098   0.000  0.00  0.00    +0.000 C 
ATOM     17  O   UNL     1      -0.884   1.137   0.000  0.00  0.00    +0.000 OA
BRANCH  16  18
ATOM     18  C   UNL     1      -2.591   0.582   0.000  0.00  0.00    +0.000 C 
BRANCH  18  19
ATOM     19  O   UNL     1      -2.505   1.403   0.000  0.00  0.00    +0.000 OA
BRANCH  19  20
ATOM     20  P   UNL     1      -3.172   1.888   0.000  0.00  0.00    +0.000 P 
ATOM     21  O   UNL     1      -3.840   2.373   0.000  0.00  0.00    +0.000 OA
ATOM     22  O   UNL     1      -3.658   1.220   0.000  0.00  0.00    +0.000 OA
ATOM     23  O   UNL     1      -2.688   2.555   0.000  0.00  0.00    +0.000 OA
ENDBRANCH  19  20
ENDBRANCH  18  19
ENDBRANCH  16  18
ENDBRANCH  11  12
BRANCH   1  24
ATOM     24  C   UNL     1       2.044  -0.784   0.000  0.00  0.00    +0.000 C 
BRANCH  24  34
ATOM     25  C   UNL     1       2.758   0.453   0.000  0.00  0.00    +0.000 A 
ATOM     26  C   UNL     1       2.044   0.866   0.000  0.00  0.00    +0.000 A 
ATOM     27  C   UNL     1       2.044   1.690   0.000  0.00  0.00    +0.000 A 
ATOM     28  C   UNL     1       2.758   2.103   0.000  0.00  0.00    +0.000 A 
ATOM     29  C   UNL     1       3.473   1.690   0.000  0.00  0.00    +0.000 A 
ATOM     30  C   UNL     1       3.473   0.866   0.000  0.00  0.00    +0.000 A 
ATOM     31  C   UNL     1       4.187   0.453   0.000  0.00  0.00    +0.000 A 
ATOM     32  C   UNL     1       4.187  -0.372   0.000  0.00  0.00    +0.000 A 
ATOM     33  C   UNL     1       3.473  -0.784   0.000  0.00  0.00    +0.000 A 
ATOM     34  C   UNL     1       2.758  -0.372   0.000  0.00  0.00    +0.000 A 
ENDBRANCH  24  34
ENDBRANCH   1  24
TORSDOF 6
