REMARK  Name = N2T
REMARK  3 active torsions:
REMARK  status: ('A' for Active; 'I' for Inactive)
REMARK    1  A    between atoms: C_3  and  C_7
REMARK    2  A    between atoms: C_10  and  C_12
REMARK    3  A    between atoms: N_19  and  C_20
REMARK                            x       y       z     vdW  Elec       q    Type
REMARK                         _______ _______ _______ _____ _____    ______ ____
ROOT
ATOM      1  C   UNL     1       1.075  -0.687   0.000  0.00  0.00    +0.000 C 
ATOM      2  C   UNL     1       0.250  -0.687   0.000  0.00  0.00    +0.000 C 
ATOM      3  N   UNL     1      -0.005   0.098   0.000  0.00  0.00    +0.000 N 
ATOM      4  C   UNL     1       0.663   0.583   0.000  0.00  0.00    +0.000 C 
ATOM      5  C   UNL     1       1.330   0.098   0.000  0.00  0.00    +0.000 C 
ATOM      6  C   UNL     1      -0.789   0.353   0.000  0.00  0.00    +0.000 C 
ATOM      7  N   UNL     1      -1.402  -0.199   0.000  0.00  0.00    +0.000 N 
ATOM      8  O   UNL     1      -0.961   1.160   0.000  0.00  0.00    +0.000 OA
ATOM      9  C   UNL     1      -1.231  -1.006   0.000  0.00  0.00    +0.000 C 
ENDROOT
BRANCH   1  12
ATOM     10  C   UNL     1       1.710  -2.775   0.000  0.00  0.00    +0.000 A 
ATOM     11  C   UNL     1       1.225  -2.108   0.000  0.00  0.00    +0.000 A 
ATOM     12  C   UNL     1       1.560  -1.354   0.000  0.00  0.00    +0.000 A 
ATOM     13  C   UNL     1       2.381  -1.268   0.000  0.00  0.00    +0.000 A 
ATOM     14  C   UNL     1       2.866  -1.935   0.000  0.00  0.00    +0.000 A 
ATOM     15  C   UNL     1       2.530  -2.689   0.000  0.00  0.00    +0.000 A 
ATOM     16  F   UNL     1       2.716  -0.514   0.000  0.00  0.00    +0.000 F 
ATOM     17  F   UNL     1       1.374  -3.529   0.000  0.00  0.00    +0.000 F 
ENDBRANCH   1  12
BRANCH   4  18
ATOM     18  C   UNL     1       0.663   1.408   0.000  0.00  0.00    +0.000 A 
ATOM     19  C   UNL     1      -0.052   1.821   0.000  0.00  0.00    +0.000 A 
ATOM     20  C   UNL     1      -0.052   2.646   0.000  0.00  0.00    +0.000 A 
ATOM     21  C   UNL     1       0.663   3.058   0.000  0.00  0.00    +0.000 A 
ATOM     22  C   UNL     1       1.377   2.646   0.000  0.00  0.00    +0.000 A 
ATOM     23  C   UNL     1       1.377   1.821   0.000  0.00  0.00    +0.000 A 
ENDBRANCH   4  18
BRANCH   7  24
ATOM     24  C   UNL     1      -2.187   0.056   0.000  0.00  0.00    +0.000 C 
ATOM     25  C   UNL     1      -2.800  -0.496   0.000  0.00  0.00    +0.000 C 
ATOM     26  C   UNL     1      -2.358   0.863   0.000  0.00  0.00    +0.000 C 
ATOM     27  C   UNL     1      -3.585  -0.241   0.000  0.00  0.00    +0.000 C 
ATOM     28  C   UNL     1      -3.143   1.118   0.000  0.00  0.00    +0.000 C 
ATOM     29  N   UNL     1      -3.756   0.566   0.000  0.00  0.00    +0.000 NA
ENDBRANCH   7  24
TORSDOF 3
