REMARK  Name = N3P
REMARK  4 active torsions:
REMARK  status: ('A' for Active; 'I' for Inactive)
REMARK    1  A    between atoms: C_11  and  C_15
REMARK    2  A    between atoms: C_13  and  N_18
REMARK    3  A    between atoms: C_14  and  O_23
REMARK    4  A    between atoms: O_23  and  P_25
REMARK                            x       y       z     vdW  Elec       q    Type
REMARK                         _______ _______ _______ _____ _____    ______ ____
ROOT
ATOM      1  C   UNL     1      -1.079  -3.361   0.000  0.00  0.00    +0.000 A 
ATOM      2  C   UNL     1      -1.079  -2.535   0.000  0.00  0.00    +0.000 A 
ATOM      3  C   UNL     1      -0.365  -3.773   0.000  0.00  0.00    +0.000 A 
ATOM      4  C   UNL     1      -0.365  -2.123   0.000  0.00  0.00    +0.000 A 
ATOM      5  C   UNL     1       1.064  -3.773   0.000  0.00  0.00    +0.000 A 
ATOM      6  C   UNL     1       1.064  -2.123   0.000  0.00  0.00    +0.000 A 
ATOM      7  C   UNL     1       1.779  -3.361   0.000  0.00  0.00    +0.000 A 
ATOM      8  C   UNL     1       1.779  -2.535   0.000  0.00  0.00    +0.000 A 
ATOM      9  C   UNL     1       0.350  -3.361   0.000  0.00  0.00    +0.000 A 
ATOM     10  C   UNL     1       0.350  -2.535   0.000  0.00  0.00    +0.000 A 
ENDROOT
BRANCH   8  11
ATOM     11  C   UNL     1       2.493  -2.123   0.000  0.00  0.00    +0.000 C 
ATOM     12  N   UNL     1       3.208  -2.535   0.000  0.00  0.00    +0.000 NA
ATOM     13  O   UNL     1       2.493  -1.298   0.000  0.00  0.00    +0.000 OA
BRANCH  12  19
ATOM     14  C   UNL     1       5.351  -2.123   0.000  0.00  0.00    +0.000 A 
ATOM     15  C   UNL     1       4.636  -0.885   0.000  0.00  0.00    +0.000 A 
ATOM     16  C   UNL     1       4.636  -2.535   0.000  0.00  0.00    +0.000 A 
ATOM     17  C   UNL     1       3.922  -1.298   0.000  0.00  0.00    +0.000 A 
ATOM     18  C   UNL     1       5.351  -1.298   0.000  0.00  0.00    +0.000 A 
ATOM     19  C   UNL     1       3.922  -2.123   0.000  0.00  0.00    +0.000 A 
ATOM     20 CL   UNL     1       6.066  -0.885   0.000  0.00  0.00    +0.000 Cl
ENDBRANCH  12  19
ENDBRANCH   8  11
BRANCH   7  21
ATOM     21  O   UNL     1       2.493  -3.773   0.000  0.00  0.00    +0.000 OA
BRANCH  21  25
ATOM     22  O   UNL     1       1.668  -4.598   0.000  0.00  0.00    +0.000 OA
ATOM     23  O   UNL     1       3.318  -4.598   0.000  0.00  0.00    +0.000 OA
ATOM     24  O   UNL     1       2.493  -5.423   0.000  0.00  0.00    +0.000 OA
ATOM     25  P   UNL     1       2.493  -4.598   0.000  0.00  0.00    +0.000 P 
ENDBRANCH  21  25
ENDBRANCH   7  21
TORSDOF 4
