REMARK  Name = N41
REMARK  5 active torsions:
REMARK  status: ('A' for Active; 'I' for Inactive)
REMARK    1  A    between atoms: C_2  and  C_3
REMARK    2  A    between atoms: C_2  and  O_16
REMARK    3  A    between atoms: C_10  and  C_25
REMARK    4  A    between atoms: C_15  and  O_16
REMARK    5  A    between atoms: N_22  and  C_23
REMARK                            x       y       z     vdW  Elec       q    Type
REMARK                         _______ _______ _______ _____ _____    ______ ____
ROOT
ATOM      1  C   UNL     1       1.093   0.848   0.000  0.00  0.00    +0.000 A 
ATOM      2  N   UNL     1       1.093   0.023   0.000  0.00  0.00    +0.000 NA
ATOM      3  C   UNL     1       0.379  -0.389   0.000  0.00  0.00    +0.000 A 
ATOM      4  C   UNL     1      -0.336   0.023   0.000  0.00  0.00    +0.000 A 
ATOM      5  N   UNL     1      -1.121  -0.232   0.000  0.00  0.00    +0.000 NA
ATOM      6  N   UNL     1      -1.121   1.103   0.000  0.00  0.00    +0.000 NA
ATOM      7  C   UNL     1      -0.336   0.848   0.000  0.00  0.00    +0.000 A 
ATOM      8  N   UNL     1       0.379   1.261   0.000  0.00  0.00    +0.000 NA
ATOM      9  N   UNL     1       1.807   1.261   0.000  0.00  0.00    +0.000 NA
ATOM     10  C   UNL     1      -1.605   0.436   0.000  0.00  0.00    +0.000 A 
ENDROOT
BRANCH   9  15
ATOM     11  C   UNL     1       1.093   3.323   0.000  0.00  0.00    +0.000 A 
ATOM     12  C   UNL     1       1.807   3.736   0.000  0.00  0.00    +0.000 A 
ATOM     13  C   UNL     1       2.522   3.323   0.000  0.00  0.00    +0.000 A 
ATOM     14  C   UNL     1       2.522   2.498   0.000  0.00  0.00    +0.000 A 
ATOM     15  C   UNL     1       1.807   2.086   0.000  0.00  0.00    +0.000 A 
ATOM     16  C   UNL     1       1.093   2.498   0.000  0.00  0.00    +0.000 A 
BRANCH  12  18
ATOM     17  N   UNL     1       1.093   4.973   0.000  0.00  0.00    +0.000 NA
ATOM     18  C   UNL     1       1.807   4.561   0.000  0.00  0.00    +0.000 C 
ATOM     19  O   UNL     1       2.522   4.973   0.000  0.00  0.00    +0.000 OA
ENDBRANCH  12  18
ENDBRANCH   9  15
BRANCH   3  20
ATOM     20  O   UNL     1       0.379  -1.214   0.000  0.00  0.00    +0.000 OA
BRANCH  20  21
ATOM     21  C   UNL     1      -0.336  -1.627   0.000  0.00  0.00    +0.000 C 
BRANCH  21  22
ATOM     22  C   UNL     1      -0.336  -2.452   0.000  0.00  0.00    +0.000 C 
ATOM     23  C   UNL     1       0.379  -2.864   0.000  0.00  0.00    +0.000 C 
ATOM     24  C   UNL     1       0.379  -3.689   0.000  0.00  0.00    +0.000 C 
ATOM     25  C   UNL     1      -0.336  -4.102   0.000  0.00  0.00    +0.000 C 
ATOM     26  C   UNL     1      -1.050  -3.689   0.000  0.00  0.00    +0.000 C 
ATOM     27  C   UNL     1      -1.050  -2.864   0.000  0.00  0.00    +0.000 C 
ENDBRANCH  21  22
ENDBRANCH  20  21
ENDBRANCH   3  20
TORSDOF 5
