REMARK  Name = N4D
REMARK  4 active torsions:
REMARK  status: ('A' for Active; 'I' for Inactive)
REMARK    1  A    between atoms: C_2  and  C_9
REMARK    2  A    between atoms: C_3  and  N_25
REMARK    3  A    between atoms: C_5  and  N_25
REMARK    4  A    between atoms: C_20  and  N_24
REMARK                            x       y       z     vdW  Elec       q    Type
REMARK                         _______ _______ _______ _____ _____    ______ ____
ROOT
ATOM      1  C   UNL     1      -0.502  -0.184   0.000  0.00  0.00    +0.000 A 
ATOM      2  C   UNL     1      -1.216   1.054   0.000  0.00  0.00    +0.000 A 
ATOM      3  C   UNL     1      -1.216   0.229   0.000  0.00  0.00    +0.000 A 
ATOM      4  C   UNL     1      -2.001  -0.026   0.000  0.00  0.00    +0.000 A 
ATOM      5  C   UNL     1       0.213   1.054   0.000  0.00  0.00    +0.000 A 
ATOM      6  N   UNL     1      -2.486   0.641   0.000  0.00  0.00    +0.000 NA
ATOM      7  N   UNL     1      -0.502   1.466   0.000  0.00  0.00    +0.000 NA
ATOM      8  N   UNL     1       0.213   0.229   0.000  0.00  0.00    +0.000 NA
ATOM      9  N   UNL     1      -2.001   1.308   0.000  0.00  0.00    +0.000 N 
ENDROOT
BRANCH   9  15
ATOM     10  C   UNL     1      -2.766   3.662   0.000  0.00  0.00    +0.000 A 
ATOM     11  C   UNL     1      -1.959   3.491   0.000  0.00  0.00    +0.000 A 
ATOM     12  C   UNL     1      -3.318   3.049   0.000  0.00  0.00    +0.000 A 
ATOM     13  C   UNL     1      -1.704   2.706   0.000  0.00  0.00    +0.000 A 
ATOM     14  C   UNL     1      -3.063   2.265   0.000  0.00  0.00    +0.000 A 
ATOM     15  C   UNL     1      -2.256   2.093   0.000  0.00  0.00    +0.000 A 
ENDBRANCH   9  15
BRANCH   1  16
ATOM     16  N   UNL     1      -0.502  -1.009   0.000  0.00  0.00    +0.000 NA
BRANCH  16  18
ATOM     17  C   UNL     1       0.213  -2.247   0.000  0.00  0.00    +0.000 A 
ATOM     18  C   UNL     1       0.213  -1.421   0.000  0.00  0.00    +0.000 A 
ATOM     19  C   UNL     1      -0.502  -2.659   0.000  0.00  0.00    +0.000 C 
ATOM     20  C   UNL     1       1.642  -1.421   0.000  0.00  0.00    +0.000 A 
ATOM     21  C   UNL     1       1.642  -2.247   0.000  0.00  0.00    +0.000 A 
ATOM     22  C   UNL     1       0.927  -2.659   0.000  0.00  0.00    +0.000 A 
ATOM     23  C   UNL     1       0.927  -1.009   0.000  0.00  0.00    +0.000 A 
BRANCH  20  24
ATOM     24  C   UNL     1       2.356  -1.009   0.000  0.00  0.00    +0.000 C 
ATOM     25  C   UNL     1       3.785  -1.009   0.000  0.00  0.00    +0.000 C 
ATOM     26  N   UNL     1       3.071  -1.421   0.000  0.00  0.00    +0.000 NA
ATOM     27  O   UNL     1       2.356  -0.184   0.000  0.00  0.00    +0.000 OA
ENDBRANCH  20  24
ENDBRANCH  16  18
ENDBRANCH   1  16
TORSDOF 4
