REMARK  Name = N4T
REMARK  4 active torsions:
REMARK  status: ('A' for Active; 'I' for Inactive)
REMARK    1  A    between atoms: C_3  and  C_7
REMARK    2  A    between atoms: C_10  and  C_12
REMARK    3  A    between atoms: C_18  and  C_19
REMARK    4  A    between atoms: C_19  and  C_20
REMARK                            x       y       z     vdW  Elec       q    Type
REMARK                         _______ _______ _______ _____ _____    ______ ____
ROOT
ATOM      1  C   UNL     1       0.876  -0.513   0.000  0.00  0.00    +0.000 C 
ATOM      2  C   UNL     1       0.069  -0.341   0.000  0.00  0.00    +0.000 C 
ATOM      3  N   UNL     1      -0.017   0.479   0.000  0.00  0.00    +0.000 N 
ATOM      4  C   UNL     1       0.737   0.815   0.000  0.00  0.00    +0.000 C 
ATOM      5  C   UNL     1       1.289   0.202   0.000  0.00  0.00    +0.000 C 
ATOM      6  C   UNL     1      -0.731   0.892   0.000  0.00  0.00    +0.000 C 
ATOM      7  O   UNL     1      -0.731   1.717   0.000  0.00  0.00    +0.000 OA
ENDROOT
BRANCH   1  10
ATOM      8  C   UNL     1       1.062  -2.688   0.000  0.00  0.00    +0.000 A 
ATOM      9  C   UNL     1       0.727  -1.934   0.000  0.00  0.00    +0.000 A 
ATOM     10  C   UNL     1       1.212  -1.267   0.000  0.00  0.00    +0.000 A 
ATOM     11  C   UNL     1       2.032  -1.353   0.000  0.00  0.00    +0.000 A 
ATOM     12  C   UNL     1       2.368  -2.107   0.000  0.00  0.00    +0.000 A 
ATOM     13  C   UNL     1       1.883  -2.774   0.000  0.00  0.00    +0.000 A 
ATOM     14  F   UNL     1       2.517  -0.685   0.000  0.00  0.00    +0.000 F 
ATOM     15  F   UNL     1       0.578  -3.355   0.000  0.00  0.00    +0.000 F 
ENDBRANCH   1  10
BRANCH   4  16
ATOM     16  C   UNL     1       0.908   1.622   0.000  0.00  0.00    +0.000 A 
ATOM     17  C   UNL     1       0.295   2.174   0.000  0.00  0.00    +0.000 A 
ATOM     18  C   UNL     1       0.467   2.981   0.000  0.00  0.00    +0.000 A 
ATOM     19  C   UNL     1       1.251   3.236   0.000  0.00  0.00    +0.000 A 
ATOM     20  C   UNL     1       1.864   2.683   0.000  0.00  0.00    +0.000 A 
ATOM     21  C   UNL     1       1.693   1.877   0.000  0.00  0.00    +0.000 A 
ENDBRANCH   4  16
BRANCH   6  22
ATOM     22  C   UNL     1      -1.446   0.479   0.000  0.00  0.00    +0.000 C 
ATOM     23  N   UNL     1      -2.160   0.892   0.000  0.00  0.00    +0.000 NA
BRANCH  22  24
ATOM     24  C   UNL     1      -1.446  -0.346   0.000  0.00  0.00    +0.000 C 
ATOM     25  C   UNL     1      -1.033  -1.060   0.000  0.00  0.00    +0.000 C 
ATOM     26  C   UNL     1      -1.858  -1.060   0.000  0.00  0.00    +0.000 C 
ENDBRANCH  22  24
ENDBRANCH   6  22
TORSDOF 4
