REMARK  Name = N5B
REMARK  3 active torsions:
REMARK  status: ('A' for Active; 'I' for Inactive)
REMARK    1  A    between atoms: C_1  and  C_2
REMARK    2  A    between atoms: C_7  and  N_9
REMARK    3  A    between atoms: C_10  and  C_11
REMARK                            x       y       z     vdW  Elec       q    Type
REMARK                         _______ _______ _______ _____ _____    ______ ____
ROOT
ATOM      1  N   UNL     1       0.268   0.695   0.000  0.00  0.00    +0.000 NA
ATOM      2  C   UNL     1      -0.553   0.609   0.000  0.00  0.00    +0.000 C 
ATOM      3  O   UNL     1      -0.888  -0.145   0.000  0.00  0.00    +0.000 OA
ENDROOT
BRANCH   2   4
ATOM      4  C   UNL     1      -1.038   1.276   0.000  0.00  0.00    +0.000 A 
ATOM      5  C   UNL     1      -1.858   1.190   0.000  0.00  0.00    +0.000 A 
ATOM      6  C   UNL     1      -0.702   2.030   0.000  0.00  0.00    +0.000 A 
ATOM      7  C   UNL     1      -2.343   1.858   0.000  0.00  0.00    +0.000 A 
ATOM      8  C   UNL     1      -1.187   2.698   0.000  0.00  0.00    +0.000 A 
ATOM      9  C   UNL     1      -2.007   2.611   0.000  0.00  0.00    +0.000 A 
ENDBRANCH   2   4
BRANCH   1  13
ATOM     10  C   UNL     1       1.165  -1.242   0.000  0.00  0.00    +0.000 A 
ATOM     11  C   UNL     1       0.498  -0.757   0.000  0.00  0.00    +0.000 A 
ATOM     12  N   UNL     1       1.833  -0.757   0.000  0.00  0.00    +0.000 NA
ATOM     13  C   UNL     1       0.753   0.028   0.000  0.00  0.00    +0.000 A 
ATOM     14  N   UNL     1       1.578   0.028   0.000  0.00  0.00    +0.000 NA
BRANCH  10  15
ATOM     15  C   UNL     1       1.165  -2.067   0.000  0.00  0.00    +0.000 C 
ATOM     16  C   UNL     1       1.578  -2.781   0.000  0.00  0.00    +0.000 C 
ATOM     17  C   UNL     1       0.753  -2.781   0.000  0.00  0.00    +0.000 C 
ENDBRANCH  10  15
ENDBRANCH   1  13
TORSDOF 3
