REMARK  Name = N5I
REMARK  5 active torsions:
REMARK  status: ('A' for Active; 'I' for Inactive)
REMARK    1  A    between atoms: N_3  and  C_5
REMARK    2  A    between atoms: N_11  and  C_14
REMARK    3  A    between atoms: C_16  and  C_20
REMARK    4  A    between atoms: C_20  and  O_21
REMARK    5  A    between atoms: O_21  and  P_22
REMARK                            x       y       z     vdW  Elec       q    Type
REMARK                         _______ _______ _______ _____ _____    ______ ____
ROOT
ATOM      1  C   UNL     1       3.171   2.691   0.000  0.00  0.00    +0.000 A 
ATOM      2  C   UNL     1       2.457   3.104   0.000  0.00  0.00    +0.000 A 
ATOM      3  C   UNL     1       1.742   2.691   0.000  0.00  0.00    +0.000 A 
ATOM      4  C   UNL     1       3.171   1.866   0.000  0.00  0.00    +0.000 A 
ATOM      5  C   UNL     1       2.457   1.454   0.000  0.00  0.00    +0.000 A 
ATOM      6  C   UNL     1       1.742   1.866   0.000  0.00  0.00    +0.000 A 
ATOM      7  N   UNL     1       0.958   1.611   0.000  0.00  0.00    +0.000 N 
ATOM      8  C   UNL     1       0.473   2.279   0.000  0.00  0.00    +0.000 A 
ATOM      9  C   UNL     1       0.958   2.946   0.000  0.00  0.00    +0.000 A 
ENDROOT
BRANCH   7  10
ATOM     10  C   UNL     1       0.703   0.827   0.000  0.00  0.00    +0.000 C 
ATOM     11  O   UNL     1      -0.082   0.572   0.000  0.00  0.00    +0.000 OA
ATOM     12  C   UNL     1      -0.082  -0.253   0.000  0.00  0.00    +0.000 C 
ATOM     13  C   UNL     1       0.703  -0.508   0.000  0.00  0.00    +0.000 C 
ATOM     14  O   UNL     1       0.958  -1.293   0.000  0.00  0.00    +0.000 OA
ATOM     15  C   UNL     1       1.188   0.159   0.000  0.00  0.00    +0.000 C 
BRANCH  12  16
ATOM     16  C   UNL     1      -0.749  -0.738   0.000  0.00  0.00    +0.000 C 
BRANCH  16  17
ATOM     17  O   UNL     1      -0.663  -1.559   0.000  0.00  0.00    +0.000 OA
BRANCH  17  19
ATOM     18  O   UNL     1      -1.998  -2.529   0.000  0.00  0.00    +0.000 OA
ATOM     19  P   UNL     1      -1.330  -2.044   0.000  0.00  0.00    +0.000 P 
ATOM     20  O   UNL     1      -1.815  -1.376   0.000  0.00  0.00    +0.000 OA
ATOM     21  O   UNL     1      -0.845  -2.711   0.000  0.00  0.00    +0.000 OA
ENDBRANCH  17  19
ENDBRANCH  16  17
ENDBRANCH  12  16
ENDBRANCH   7  10
BRANCH   1  23
ATOM     22  O   UNL     1       3.886   3.929   0.000  0.00  0.00    +0.000 OA
ATOM     23  N   UNL     1       3.886   3.104   0.000  0.00  0.00    +0.000 N 
ATOM     24  O   UNL     1       4.600   2.691   0.000  0.00  0.00    +0.000 OA
ENDBRANCH   1  23
TORSDOF 5
