REMARK  Name = N5T
REMARK  2 active torsions:
REMARK  status: ('A' for Active; 'I' for Inactive)
REMARK    1  A    between atoms: C_3  and  C_7
REMARK    2  A    between atoms: C_10  and  C_12
REMARK                            x       y       z     vdW  Elec       q    Type
REMARK                         _______ _______ _______ _____ _____    ______ ____
ROOT
ATOM      1  C   UNL     1       0.859  -0.738   0.000  0.00  0.00    +0.000 C 
ATOM      2  C   UNL     1       0.034  -0.738   0.000  0.00  0.00    +0.000 C 
ATOM      3  N   UNL     1      -0.221   0.047   0.000  0.00  0.00    +0.000 N 
ATOM      4  C   UNL     1       0.446   0.532   0.000  0.00  0.00    +0.000 C 
ATOM      5  C   UNL     1       1.114   0.047   0.000  0.00  0.00    +0.000 C 
ATOM      6  C   UNL     1      -1.006   0.302   0.000  0.00  0.00    +0.000 C 
ATOM      7  N   UNL     1      -1.619  -0.250   0.000  0.00  0.00    +0.000 N 
ATOM      8  C   UNL     1      -1.448  -1.057   0.000  0.00  0.00    +0.000 C 
ATOM      9  C   UNL     1      -2.404   0.005   0.000  0.00  0.00    +0.000 C 
ATOM     10  O   UNL     1      -1.177   1.109   0.000  0.00  0.00    +0.000 OA
ENDROOT
BRANCH   1  13
ATOM     11  C   UNL     1       1.493  -2.826   0.000  0.00  0.00    +0.000 A 
ATOM     12  C   UNL     1       1.008  -2.159   0.000  0.00  0.00    +0.000 A 
ATOM     13  C   UNL     1       1.343  -1.405   0.000  0.00  0.00    +0.000 A 
ATOM     14  C   UNL     1       2.164  -1.319   0.000  0.00  0.00    +0.000 A 
ATOM     15  C   UNL     1       2.649  -1.986   0.000  0.00  0.00    +0.000 A 
ATOM     16  C   UNL     1       2.313  -2.740   0.000  0.00  0.00    +0.000 A 
ATOM     17  F   UNL     1       2.500  -0.565   0.000  0.00  0.00    +0.000 F 
ATOM     18  F   UNL     1       1.157  -3.580   0.000  0.00  0.00    +0.000 F 
ENDBRANCH   1  13
BRANCH   4  19
ATOM     19  C   UNL     1       0.446   1.357   0.000  0.00  0.00    +0.000 A 
ATOM     20  C   UNL     1      -0.268   1.769   0.000  0.00  0.00    +0.000 A 
ATOM     21  C   UNL     1      -0.268   2.594   0.000  0.00  0.00    +0.000 A 
ATOM     22  C   UNL     1       0.446   3.007   0.000  0.00  0.00    +0.000 A 
ATOM     23  C   UNL     1       1.161   2.594   0.000  0.00  0.00    +0.000 A 
ATOM     24  C   UNL     1       1.161   1.769   0.000  0.00  0.00    +0.000 A 
ENDBRANCH   4  19
TORSDOF 2
