REMARK  Name = N69
REMARK  4 active torsions:
REMARK  status: ('A' for Active; 'I' for Inactive)
REMARK    1  A    between atoms: C_7  and  C_8
REMARK    2  A    between atoms: C_13  and  O_14
REMARK    3  A    between atoms: O_14  and  C_15
REMARK    4  A    between atoms: C_15  and  C_16
REMARK                            x       y       z     vdW  Elec       q    Type
REMARK                         _______ _______ _______ _____ _____    ______ ____
ROOT
ATOM      1  N   UNL     1       2.030   2.531   0.000  0.00  0.00    +0.000 NA
ATOM      2  C   UNL     1       1.316   2.119   0.000  0.00  0.00    +0.000 A 
ATOM      3  N   UNL     1       1.316   1.294   0.000  0.00  0.00    +0.000 NA
ATOM      4  N   UNL     1       0.601   2.531   0.000  0.00  0.00    +0.000 NA
ATOM      5  C   UNL     1      -0.113   2.119   0.000  0.00  0.00    +0.000 A 
ATOM      6  N   UNL     1      -0.898   2.374   0.000  0.00  0.00    +0.000 NA
ATOM      7  C   UNL     1      -1.383   1.706   0.000  0.00  0.00    +0.000 A 
ATOM      8  C   UNL     1      -0.113   1.294   0.000  0.00  0.00    +0.000 A 
ATOM      9  N   UNL     1      -0.898   1.039   0.000  0.00  0.00    +0.000 NA
ATOM     10  C   UNL     1       0.601   0.881   0.000  0.00  0.00    +0.000 A 
ENDROOT
BRANCH   7  11
ATOM     11  C   UNL     1      -2.208   1.706   0.000  0.00  0.00    +0.000 C 
ATOM     12  C   UNL     1      -2.620   2.421   0.000  0.00  0.00    +0.000 C 
ATOM     13  C   UNL     1      -2.620   0.992   0.000  0.00  0.00    +0.000 C 
ENDBRANCH   7  11
BRANCH  10  14
ATOM     14  O   UNL     1       0.601   0.057   0.000  0.00  0.00    +0.000 OA
BRANCH  14  15
ATOM     15  C   UNL     1       1.316  -0.356   0.000  0.00  0.00    +0.000 C 
BRANCH  15  16
ATOM     16  C   UNL     1       1.316  -1.181   0.000  0.00  0.00    +0.000 C 
ATOM     17  C   UNL     1       2.030  -1.593   0.000  0.00  0.00    +0.000 C 
ATOM     18  C   UNL     1       2.030  -2.418   0.000  0.00  0.00    +0.000 C 
ATOM     19  C   UNL     1       1.316  -2.831   0.000  0.00  0.00    +0.000 C 
ATOM     20  C   UNL     1       0.601  -2.418   0.000  0.00  0.00    +0.000 C 
ATOM     21  C   UNL     1       0.601  -1.593   0.000  0.00  0.00    +0.000 C 
ENDBRANCH  15  16
ENDBRANCH  14  15
ENDBRANCH  10  14
TORSDOF 4
