REMARK  Name = N76
REMARK  5 active torsions:
REMARK  status: ('A' for Active; 'I' for Inactive)
REMARK    1  A    between atoms: C_3  and  C_4
REMARK    2  A    between atoms: C_3  and  O_18
REMARK    3  A    between atoms: C_11  and  S_26
REMARK    4  A    between atoms: N_12  and  C_14
REMARK    5  A    between atoms: C_17  and  O_18
REMARK                            x       y       z     vdW  Elec       q    Type
REMARK                         _______ _______ _______ _____ _____    ______ ____
ROOT
ATOM      1  C   UNL     1       0.101   0.812   0.000  0.00  0.00    +0.000 A 
ATOM      2  C   UNL     1      -2.598   0.400   0.000  0.00  0.00    +0.000 A 
ATOM      3  N   UNL     1       0.815   1.225   0.000  0.00  0.00    +0.000 NA
ATOM      4  N   UNL     1       0.101  -0.013   0.000  0.00  0.00    +0.000 NA
ATOM      5  C   UNL     1      -0.614  -0.425   0.000  0.00  0.00    +0.000 A 
ATOM      6  C   UNL     1      -1.328  -0.013   0.000  0.00  0.00    +0.000 A 
ATOM      7  N   UNL     1      -2.113  -0.268   0.000  0.00  0.00    +0.000 NA
ATOM      8  N   UNL     1      -2.113   1.067   0.000  0.00  0.00    +0.000 NA
ATOM      9  C   UNL     1      -1.328   0.812   0.000  0.00  0.00    +0.000 A 
ATOM     10  N   UNL     1      -0.614   1.225   0.000  0.00  0.00    +0.000 NA
ENDROOT
BRANCH   3  14
ATOM     11  C   UNL     1       0.815   3.700   0.000  0.00  0.00    +0.000 A 
ATOM     12  C   UNL     1       1.530   3.288   0.000  0.00  0.00    +0.000 A 
ATOM     13  C   UNL     1       1.530   2.462   0.000  0.00  0.00    +0.000 A 
ATOM     14  C   UNL     1       0.815   2.050   0.000  0.00  0.00    +0.000 A 
ATOM     15  C   UNL     1       0.101   2.462   0.000  0.00  0.00    +0.000 A 
ATOM     16  C   UNL     1       0.101   3.288   0.000  0.00  0.00    +0.000 A 
BRANCH  12  18
ATOM     17  N   UNL     1       2.959   4.112   0.000  0.00  0.00    +0.000 NA
ATOM     18  S   UNL     1       2.244   3.700   0.000  0.00  0.00    +0.000 S 
ATOM     19  O   UNL     1       2.657   2.986   0.000  0.00  0.00    +0.000 OA
ATOM     20  O   UNL     1       1.832   4.415   0.000  0.00  0.00    +0.000 OA
ENDBRANCH  12  18
ENDBRANCH   3  14
BRANCH   5  21
ATOM     21  O   UNL     1      -0.614  -1.250   0.000  0.00  0.00    +0.000 OA
BRANCH  21  22
ATOM     22  C   UNL     1      -1.328  -1.663   0.000  0.00  0.00    +0.000 C 
BRANCH  22  23
ATOM     23  C   UNL     1      -1.328  -2.487   0.000  0.00  0.00    +0.000 C 
ATOM     24  C   UNL     1      -0.614  -2.900   0.000  0.00  0.00    +0.000 C 
ATOM     25  C   UNL     1      -0.614  -3.725   0.000  0.00  0.00    +0.000 C 
ATOM     26  C   UNL     1      -1.328  -4.138   0.000  0.00  0.00    +0.000 C 
ATOM     27  C   UNL     1      -2.042  -3.725   0.000  0.00  0.00    +0.000 C 
ATOM     28  C   UNL     1      -2.042  -2.900   0.000  0.00  0.00    +0.000 C 
ENDBRANCH  22  23
ENDBRANCH  21  22
ENDBRANCH   5  21
TORSDOF 5
