REMARK  Name = N9H
REMARK  6 active torsions:
REMARK  status: ('A' for Active; 'I' for Inactive)
REMARK    1  A    between atoms: C_3  and  C_7
REMARK    2  A    between atoms: C_10  and  C_12
REMARK    3  A    between atoms: C_10  and  C_24
REMARK    4  A    between atoms: N_19  and  C_20
REMARK    5  A    between atoms: C_24  and  C_25
REMARK    6  A    between atoms: C_25  and  C_27
REMARK                            x       y       z     vdW  Elec       q    Type
REMARK                         _______ _______ _______ _____ _____    ______ ____
ROOT
ATOM      1  C   UNL     1       1.714   0.000   0.000  0.00  0.00    +0.000 C 
ATOM      2  N   UNL     1       1.459  -0.784   0.000  0.00  0.00    +0.000 NA
ATOM      3  N   UNL     1       0.634  -0.784   0.000  0.00  0.00    +0.000 N 
ATOM      4  C   UNL     1       0.379   0.000   0.000  0.00  0.00    +0.000 C 
ATOM      5  C   UNL     1       1.047   0.485   0.000  0.00  0.00    +0.000 C 
ATOM      6  C   UNL     1       0.149  -1.452   0.000  0.00  0.00    +0.000 C 
ATOM      7  N   UNL     1      -0.671  -1.365   0.000  0.00  0.00    +0.000 NA
ATOM      8  O   UNL     1       0.485  -2.205   0.000  0.00  0.00    +0.000 OA
ENDROOT
BRANCH   1  11
ATOM      9  C   UNL     1       3.897  -0.042   0.000  0.00  0.00    +0.000 A 
ATOM     10  C   UNL     1       3.112  -0.297   0.000  0.00  0.00    +0.000 A 
ATOM     11  C   UNL     1       2.499   0.255   0.000  0.00  0.00    +0.000 A 
ATOM     12  C   UNL     1       2.671   1.062   0.000  0.00  0.00    +0.000 A 
ATOM     13  C   UNL     1       3.455   1.317   0.000  0.00  0.00    +0.000 A 
ATOM     14  C   UNL     1       4.068   0.765   0.000  0.00  0.00    +0.000 A 
ATOM     15  F   UNL     1       2.057   1.614   0.000  0.00  0.00    +0.000 F 
ATOM     16  F   UNL     1       4.510  -0.594   0.000  0.00  0.00    +0.000 F 
ENDBRANCH   1  11
BRANCH   4  17
ATOM     17  C   UNL     1      -0.429  -0.163   0.000  0.00  0.00    +0.000 A 
ATOM     18  C   UNL     1      -0.692  -0.945   0.000  0.00  0.00    +0.000 A 
ATOM     19  C   UNL     1      -1.501  -1.108   0.000  0.00  0.00    +0.000 A 
ATOM     20  C   UNL     1      -2.047  -0.489   0.000  0.00  0.00    +0.000 A 
ATOM     21  C   UNL     1      -1.784   0.293   0.000  0.00  0.00    +0.000 A 
ATOM     22  C   UNL     1      -0.975   0.456   0.000  0.00  0.00    +0.000 A 
ENDBRANCH   4  17
BRANCH   7  23
ATOM     23  C   UNL     1      -1.156  -2.033   0.000  0.00  0.00    +0.000 C 
ATOM     24  C   UNL     1      -1.976  -1.947   0.000  0.00  0.00    +0.000 C 
ENDBRANCH   7  23
BRANCH   4  25
ATOM     25  C   UNL     1      -0.179   0.608   0.000  0.00  0.00    +0.000 C 
BRANCH  25  26
ATOM     26  C   UNL     1       0.068   1.395   0.000  0.00  0.00    +0.000 C 
BRANCH  26  27
ATOM     27  C   UNL     1      -0.491   2.002   0.000  0.00  0.00    +0.000 C 
ATOM     28  N   UNL     1      -0.244   2.789   0.000  0.00  0.00    +0.000 NA
ENDBRANCH  26  27
ENDBRANCH  25  26
ENDBRANCH   4  25
TORSDOF 6
