REMARK  Name = NAL
REMARK  3 active torsions:
REMARK  status: ('A' for Active; 'I' for Inactive)
REMARK    1  A    between atoms: C_2  and  C_11
REMARK    2  A    between atoms: C_11  and  CA_12
REMARK    3  A    between atoms: CA_12  and  C_13
REMARK                            x       y       z     vdW  Elec       q    Type
REMARK                         _______ _______ _______ _____ _____    ______ ____
ROOT
ATOM      1  C   UNL     1       0.309   0.607   0.000  0.00  0.00    +0.000 A 
ATOM      2  C   UNL     1      -0.405   0.194   0.000  0.00  0.00    +0.000 A 
ATOM      3  C   UNL     1      -0.405  -0.631   0.000  0.00  0.00    +0.000 A 
ATOM      4  C   UNL     1       0.309  -1.043   0.000  0.00  0.00    +0.000 A 
ATOM      5  C   UNL     1       1.024  -0.631   0.000  0.00  0.00    +0.000 A 
ATOM      6  C   UNL     1       1.738  -1.043   0.000  0.00  0.00    +0.000 A 
ATOM      7  C   UNL     1       2.453  -0.631   0.000  0.00  0.00    +0.000 A 
ATOM      8  C   UNL     1       2.453   0.194   0.000  0.00  0.00    +0.000 A 
ATOM      9  C   UNL     1       1.738   0.607   0.000  0.00  0.00    +0.000 A 
ATOM     10  C   UNL     1       1.024   0.194   0.000  0.00  0.00    +0.000 A 
ENDROOT
BRANCH   2  11
ATOM     11  C   UNL     1      -1.120   0.607   0.000  0.00  0.00    +0.000 C 
BRANCH  11  12
ATOM     12  CA  UNL     1      -1.834   0.194   0.000  0.00  0.00    +0.000 C 
ATOM     13  N   UNL     1      -1.834  -0.631   0.000  0.00  0.00    +0.000 NA
BRANCH  12  14
ATOM     14  C   UNL     1      -2.549   0.607   0.000  0.00  0.00    +0.000 C 
ATOM     15  O   UNL     1      -3.263   0.194   0.000  0.00  0.00    +0.000 OA
ATOM     16  OXT UNL     1      -2.549   1.432   0.000  0.00  0.00    +0.000 OA
ENDBRANCH  12  14
ENDBRANCH  11  12
ENDBRANCH   2  11
TORSDOF 3
