REMARK  Name = NAM
REMARK  3 active torsions:
REMARK  status: ('A' for Active; 'I' for Inactive)
REMARK    1  A    between atoms: C_2  and  C_3
REMARK    2  A    between atoms: C_2  and  C_4
REMARK    3  A    between atoms: C_3  and  C_7
REMARK                            x       y       z     vdW  Elec       q    Type
REMARK                         _______ _______ _______ _____ _____    ______ ____
ROOT
ATOM      1  C   UNL     1      -0.219   0.128   0.000  0.00  0.00    +0.000 A 
ATOM      2  C   UNL     1      -0.934   0.540   0.000  0.00  0.00    +0.000 A 
ATOM      3  C   UNL     1      -0.934   1.365   0.000  0.00  0.00    +0.000 A 
ATOM      4  C   UNL     1      -0.219   1.778   0.000  0.00  0.00    +0.000 A 
ATOM      5  C   UNL     1       0.495   1.365   0.000  0.00  0.00    +0.000 A 
ATOM      6  C   UNL     1       1.210   1.778   0.000  0.00  0.00    +0.000 A 
ATOM      7  C   UNL     1       1.924   1.365   0.000  0.00  0.00    +0.000 A 
ATOM      8  C   UNL     1       1.924   0.540   0.000  0.00  0.00    +0.000 A 
ATOM      9  C   UNL     1       1.210   0.128   0.000  0.00  0.00    +0.000 A 
ATOM     10  C   UNL     1       0.495   0.540   0.000  0.00  0.00    +0.000 A 
ENDROOT
BRANCH   1  11
ATOM     11  C   UNL     1      -0.219  -0.697   0.000  0.00  0.00    +0.000 C 
BRANCH  11  13
ATOM     12  N   UNL     1      -1.648  -0.697   0.000  0.00  0.00    +0.000 NA
ATOM     13  C   UNL     1      -0.934  -1.110   0.000  0.00  0.00    +0.000 C 
BRANCH  13  14
ATOM     14  C   UNL     1      -0.934  -1.935   0.000  0.00  0.00    +0.000 C 
ATOM     15  O   UNL     1      -1.648  -2.347   0.000  0.00  0.00    +0.000 OA
ATOM     16  N   UNL     1      -0.219  -2.347   0.000  0.00  0.00    +0.000 NA
ENDBRANCH  13  14
ENDBRANCH  11  13
ENDBRANCH   1  11
TORSDOF 3
