REMARK  Name = NAR
REMARK  1 active torsions:
REMARK  status: ('A' for Active; 'I' for Inactive)
REMARK    1  A    between atoms: C_9  and  C_12
REMARK                            x       y       z     vdW  Elec       q    Type
REMARK                         _______ _______ _______ _____ _____    ______ ____
ROOT
ATOM      1  C   UNL     1      -1.785   0.472   0.000  0.00  0.00    +0.000 A 
ATOM      2  C   UNL     1      -2.500   0.060   0.000  0.00  0.00    +0.000 A 
ATOM      3  C   UNL     1      -2.500  -0.765   0.000  0.00  0.00    +0.000 A 
ATOM      4  C   UNL     1      -1.785  -1.178   0.000  0.00  0.00    +0.000 A 
ATOM      5  C   UNL     1      -1.071  -0.765   0.000  0.00  0.00    +0.000 A 
ATOM      6  C   UNL     1      -1.071   0.060   0.000  0.00  0.00    +0.000 A 
ATOM      7  C   UNL     1      -0.356  -1.178   0.000  0.00  0.00    +0.000 C 
ATOM      8  C   UNL     1       0.358  -0.765   0.000  0.00  0.00    +0.000 C 
ATOM      9  C   UNL     1       0.358   0.060   0.000  0.00  0.00    +0.000 C 
ATOM     10  O   UNL     1      -0.356   0.472   0.000  0.00  0.00    +0.000 OA
ATOM     11  O   UNL     1      -0.356  -2.003   0.000  0.00  0.00    +0.000 OA
ATOM     12  O   UNL     1      -3.214   0.472   0.000  0.00  0.00    +0.000 OA
ATOM     13  O   UNL     1      -1.785  -2.003   0.000  0.00  0.00    +0.000 OA
ENDROOT
BRANCH   9  14
ATOM     14  C   UNL     1       1.073   0.472   0.000  0.00  0.00    +0.000 A 
ATOM     15  C   UNL     1       1.073   1.297   0.000  0.00  0.00    +0.000 A 
ATOM     16  C   UNL     1       1.787   1.710   0.000  0.00  0.00    +0.000 A 
ATOM     17  C   UNL     1       2.501   1.297   0.000  0.00  0.00    +0.000 A 
ATOM     18  C   UNL     1       2.501   0.472   0.000  0.00  0.00    +0.000 A 
ATOM     19  C   UNL     1       1.787   0.060   0.000  0.00  0.00    +0.000 A 
ATOM     20  O   UNL     1       3.216   1.710   0.000  0.00  0.00    +0.000 OA
ENDBRANCH   9  14
TORSDOF 1
