REMARK  Name = NB1
REMARK  3 active torsions:
REMARK  status: ('A' for Active; 'I' for Inactive)
REMARK    1  A    between atoms: C_5  and  C_6
REMARK    2  A    between atoms: C_7  and  C_8
REMARK    3  A    between atoms: C_8  and  C_16
REMARK                            x       y       z     vdW  Elec       q    Type
REMARK                         _______ _______ _______ _____ _____    ______ ____
ROOT
ATOM      1  C   UNL     1       0.385  -1.132   0.000  0.00  0.00    +0.000 C 
ATOM      2  C   UNL     1       0.385  -0.307   0.000  0.00  0.00    +0.000 C 
ATOM      3  C   UNL     1       1.099   0.105   0.000  0.00  0.00    +0.000 C 
ATOM      4  C   UNL     1       1.813  -0.307   0.000  0.00  0.00    +0.000 C 
ATOM      5  C   UNL     1       1.813  -1.132   0.000  0.00  0.00    +0.000 C 
ATOM      6  C   UNL     1      -0.885  -0.720   0.000  0.00  0.00    +0.000 C 
ATOM      7  N   UNL     1      -0.400  -0.052   0.000  0.00  0.00    +0.000 NA
ATOM      8  O   UNL     1       1.099   0.930   0.000  0.00  0.00    +0.000 OA
ATOM      9  O   UNL     1       2.528   0.105   0.000  0.00  0.00    +0.000 OA
ATOM     10  O   UNL     1       1.099  -1.545   0.000  0.00  0.00    +0.000 OA
ATOM     11  S   UNL     1      -0.400  -1.387   0.000  0.00  0.00    +0.000 S 
ENDROOT
BRANCH   5  12
ATOM     12  C   UNL     1       2.528  -1.545   0.000  0.00  0.00    +0.000 C 
ATOM     13  O   UNL     1       3.243  -1.132   0.000  0.00  0.00    +0.000 OA
ENDBRANCH   5  12
BRANCH   6  14
ATOM     14  C   UNL     1      -1.710  -0.720   0.000  0.00  0.00    +0.000 C 
BRANCH  14  16
ATOM     15  C   UNL     1      -2.947  -0.005   0.000  0.00  0.00    +0.000 C 
ATOM     16  C   UNL     1      -2.123  -0.005   0.000  0.00  0.00    +0.000 C 
ENDBRANCH  14  16
ENDBRANCH   6  14
TORSDOF 3
