REMARK  Name = NBF
REMARK  5 active torsions:
REMARK  status: ('A' for Active; 'I' for Inactive)
REMARK    1  A    between atoms: C_2  and  O_3
REMARK    2  A    between atoms: O_3  and  C_4
REMARK    3  A    between atoms: C_5  and  C_6
REMARK    4  A    between atoms: N_8  and  C_9
REMARK    5  A    between atoms: C_9  and  B_10
REMARK                            x       y       z     vdW  Elec       q    Type
REMARK                         _______ _______ _______ _____ _____    ______ ____
ROOT
ATOM      1  C   UNL     1      -0.897   0.371   0.000  0.00  0.00    +0.000 A 
ATOM      2  C   UNL     1      -0.183  -0.042   0.000  0.00  0.00    +0.000 A 
ATOM      3  C   UNL     1       0.531   0.371   0.000  0.00  0.00    +0.000 A 
ATOM      4  C   UNL     1       0.531   1.196   0.000  0.00  0.00    +0.000 A 
ATOM      5  C   UNL     1       1.246   1.608   0.000  0.00  0.00    +0.000 A 
ATOM      6  C   UNL     1       1.960   1.196   0.000  0.00  0.00    +0.000 A 
ATOM      7  C   UNL     1       1.960   0.371   0.000  0.00  0.00    +0.000 A 
ATOM      8  C   UNL     1       1.246  -0.042   0.000  0.00  0.00    +0.000 A 
ATOM      9  C   UNL     1      -0.183   1.608   0.000  0.00  0.00    +0.000 A 
ATOM     10  C   UNL     1      -0.897   1.196   0.000  0.00  0.00    +0.000 A 
ENDROOT
BRANCH   2  11
ATOM     11  C   UNL     1      -0.183  -0.867   0.000  0.00  0.00    +0.000 C 
ATOM     12  O   UNL     1      -0.897  -1.279   0.000  0.00  0.00    +0.000 OA
ATOM     13  N   UNL     1       0.531  -1.279   0.000  0.00  0.00    +0.000 NA
BRANCH  13  14
ATOM     14  C   UNL     1       1.246  -0.867   0.000  0.00  0.00    +0.000 C 
BRANCH  14  15
ATOM     15  B   UNL     1       1.960  -1.279   0.000  0.00  0.00    +0.000 B 
ATOM     16  O   UNL     1       2.675  -0.867   0.000  0.00  0.00    +0.000 OA
ATOM     17  O   UNL     1       1.960  -2.104   0.000  0.00  0.00    +0.000 OA
ENDBRANCH  14  15
ENDBRANCH  13  14
ENDBRANCH   2  11
BRANCH   1  18
ATOM     18  O   UNL     1      -1.612  -0.042   0.000  0.00  0.00    +0.000 OA
BRANCH  18  20
ATOM     19  C   UNL     1      -3.041  -0.042   0.000  0.00  0.00    +0.000 C 
ATOM     20  C   UNL     1      -2.326   0.371   0.000  0.00  0.00    +0.000 C 
ENDBRANCH  18  20
ENDBRANCH   1  18
TORSDOF 5
