REMARK  Name = NBL
REMARK  9 active torsions:
REMARK  status: ('A' for Active; 'I' for Inactive)
REMARK    1  A    between atoms: C_2  and  C_4
REMARK    2  A    between atoms: C_4  and  C_5
REMARK    3  A    between atoms: C_5  and  N_6
REMARK    4  A    between atoms: C_5  and  C_17
REMARK    5  A    between atoms: C_7  and  O_9
REMARK    6  A    between atoms: O_9  and  C_10
REMARK    7  A    between atoms: C_10  and  C_11
REMARK    8  A    between atoms: N_19  and  C_20
REMARK    9  A    between atoms: N_23  and  C_25
REMARK                            x       y       z     vdW  Elec       q    Type
REMARK                         _______ _______ _______ _____ _____    ______ ____
ROOT
ATOM      1  C   UNL     1       0.065   0.122   0.000  0.00  0.00    +0.000 C 
ENDROOT
BRANCH   1   2
ATOM      2  C   UNL     1       0.779   0.535   0.000  0.00  0.00    +0.000 C 
ATOM      3  O   UNL     1       0.779   1.360   0.000  0.00  0.00    +0.000 OA
ATOM      4  N   UNL     1       1.494   0.122   0.000  0.00  0.00    +0.000 NA
BRANCH   4   5
ATOM      5  C   UNL     1       2.208   0.535   0.000  0.00  0.00    +0.000 C 
ATOM      6  C   UNL     1       2.294   1.355   0.000  0.00  0.00    +0.000 C 
ATOM      7  C   UNL     1       3.101   1.527   0.000  0.00  0.00    +0.000 C 
ATOM      8  N   UNL     1       3.514   0.812   0.000  0.00  0.00    +0.000 N 
ATOM      9  C   UNL     1       2.962   0.199   0.000  0.00  0.00    +0.000 C 
BRANCH   8  10
ATOM     10  C   UNL     1       4.334   0.726   0.000  0.00  0.00    +0.000 C 
ATOM     11  N   UNL     1       5.155   0.640   0.000  0.00  0.00    +0.000 NA
ENDBRANCH   8  10
ENDBRANCH   4   5
ENDBRANCH   1   2
BRANCH   1  12
ATOM     12  N   UNL     1      -0.650   0.535   0.000  0.00  0.00    +0.000 NA
ATOM     13  C   UNL     1      -1.364   0.122   0.000  0.00  0.00    +0.000 C 
ATOM     14  O   UNL     1      -1.364  -0.703   0.000  0.00  0.00    +0.000 OA
BRANCH  13  15
ATOM     15  O   UNL     1      -2.079   0.535   0.000  0.00  0.00    +0.000 OA
BRANCH  15  16
ATOM     16  C   UNL     1      -2.793   0.122   0.000  0.00  0.00    +0.000 C 
BRANCH  16  17
ATOM     17  C   UNL     1      -3.508   0.535   0.000  0.00  0.00    +0.000 A 
ATOM     18  C   UNL     1      -4.222   0.122   0.000  0.00  0.00    +0.000 A 
ATOM     19  C   UNL     1      -4.937   0.535   0.000  0.00  0.00    +0.000 A 
ATOM     20  C   UNL     1      -4.937   1.360   0.000  0.00  0.00    +0.000 A 
ATOM     21  C   UNL     1      -4.222   1.772   0.000  0.00  0.00    +0.000 A 
ATOM     22  C   UNL     1      -3.508   1.360   0.000  0.00  0.00    +0.000 A 
ENDBRANCH  16  17
ENDBRANCH  15  16
ENDBRANCH  13  15
ENDBRANCH   1  12
BRANCH   1  23
ATOM     23  C   UNL     1       0.065  -0.703   0.000  0.00  0.00    +0.000 C 
BRANCH  23  25
ATOM     24  C   UNL     1       0.779  -1.940   0.000  0.00  0.00    +0.000 C 
ATOM     25  C   UNL     1       0.779  -1.115   0.000  0.00  0.00    +0.000 C 
ATOM     26  C   UNL     1       1.494  -0.703   0.000  0.00  0.00    +0.000 C 
ENDBRANCH  23  25
ENDBRANCH   1  23
TORSDOF 9
