REMARK  Name = NBQ
REMARK  9 active torsions:
REMARK  status: ('A' for Active; 'I' for Inactive)
REMARK    1  A    between atoms: CA_2  and  C_3
REMARK    2  A    between atoms: CA_2  and  C_29
REMARK    3  A    between atoms: C_3  and  C_4
REMARK    4  A    between atoms: C_10  and  N_12
REMARK    5  A    between atoms: N_12  and  C_13
REMARK    6  A    between atoms: C_13  and  C_17
REMARK    7  A    between atoms: C_14  and  C_15
REMARK    8  A    between atoms: C_17  and  O_18
REMARK    9  A    between atoms: O_18  and  C_19
REMARK                            x       y       z     vdW  Elec       q    Type
REMARK                         _______ _______ _______ _____ _____    ______ ____
ROOT
ATOM      1  C   UNL     1       2.808  -4.326   0.000  0.00  0.00    +0.000 C 
ATOM      2  C   UNL     1       2.094  -3.913   0.000  0.00  0.00    +0.000 C 
ENDROOT
BRANCH   2   3
ATOM      3  C   UNL     1       2.094  -3.088   0.000  0.00  0.00    +0.000 C 
ATOM      4  O   UNL     1       1.379  -2.676   0.000  0.00  0.00    +0.000 OA
ENDBRANCH   2   3
BRANCH   1   5
ATOM      5  N   UNL     1       2.808  -5.151   0.000  0.00  0.00    +0.000 NA
BRANCH   5  12
ATOM      6  C   UNL     1       1.379  -6.801   0.000  0.00  0.00    +0.000 A 
ATOM      7  C   UNL     1       0.664  -6.388   0.000  0.00  0.00    +0.000 A 
ATOM      8  O   UNL     1      -0.050  -6.801   0.000  0.00  0.00    +0.000 OA
ATOM      9  C   UNL     1       0.664  -5.563   0.000  0.00  0.00    +0.000 A 
ATOM     10  C   UNL     1       1.379  -5.151   0.000  0.00  0.00    +0.000 A 
ATOM     11  O   UNL     1       1.379  -4.326   0.000  0.00  0.00    +0.000 OA
ATOM     12  C   UNL     1       2.094  -5.563   0.000  0.00  0.00    +0.000 A 
ATOM     13  C   UNL     1       2.094  -6.388   0.000  0.00  0.00    +0.000 A 
BRANCH   6  14
ATOM     14  C   UNL     1       1.379  -7.626   0.000  0.00  0.00    +0.000 C 
BRANCH  14  16
ATOM     15  N   UNL     1       2.808  -7.626   0.000  0.00  0.00    +0.000 NA
ATOM     16  CA  UNL     1       2.094  -8.038   0.000  0.00  0.00    +0.000 C 
BRANCH  16  17
ATOM     17  C   UNL     1       2.094  -8.863   0.000  0.00  0.00    +0.000 C 
ATOM     18  O   UNL     1       1.379  -9.276   0.000  0.00  0.00    +0.000 OA
ATOM     19  OXT UNL     1       2.808  -9.276   0.000  0.00  0.00    +0.000 OA
ENDBRANCH  16  17
ENDBRANCH  14  16
ENDBRANCH   6  14
ENDBRANCH   5  12
ENDBRANCH   1   5
BRANCH   1  20
ATOM     20  C   UNL     1       3.522  -3.913   0.000  0.00  0.00    +0.000 C 
BRANCH  20  21
ATOM     21  O   UNL     1       3.522  -3.088   0.000  0.00  0.00    +0.000 OA
BRANCH  21  22
ATOM     22  C   UNL     1       4.237  -2.676   0.000  0.00  0.00    +0.000 A 
ATOM     23  C   UNL     1       4.237  -1.851   0.000  0.00  0.00    +0.000 A 
ATOM     24  C   UNL     1       4.951  -1.438   0.000  0.00  0.00    +0.000 A 
ATOM     25  C   UNL     1       5.666  -1.851   0.000  0.00  0.00    +0.000 A 
ATOM     26  C   UNL     1       6.380  -1.438   0.000  0.00  0.00    +0.000 A 
ATOM     27  C   UNL     1       5.666  -2.676   0.000  0.00  0.00    +0.000 A 
ATOM     28  C   UNL     1       4.951  -3.088   0.000  0.00  0.00    +0.000 A 
ATOM     29  C   UNL     1       6.380  -3.088   0.000  0.00  0.00    +0.000 A 
ATOM     30  C   UNL     1       7.095  -2.676   0.000  0.00  0.00    +0.000 A 
ATOM     31  C   UNL     1       7.095  -1.851   0.000  0.00  0.00    +0.000 A 
ENDBRANCH  21  22
ENDBRANCH  20  21
ENDBRANCH   1  20
TORSDOF 9
