REMARK  Name = NC3
REMARK  3 active torsions:
REMARK  status: ('A' for Active; 'I' for Inactive)
REMARK    1  A    between atoms: C_1  and  N_2
REMARK    2  A    between atoms: N_4  and  C_5
REMARK    3  A    between atoms: C_5  and  C_6
REMARK                            x       y       z     vdW  Elec       q    Type
REMARK                         _______ _______ _______ _____ _____    ______ ____
ROOT
ATOM      1  N   UNL     1      -0.419  -0.559   0.000  0.00  0.00    +0.000 NA
ATOM      2  C   UNL     1       0.296  -0.146   0.000  0.00  0.00    +0.000 C 
ATOM      3  N   UNL     1       1.010  -0.559   0.000  0.00  0.00    +0.000 NA
ATOM      4  O   UNL     1       0.296   0.679   0.000  0.00  0.00    +0.000 OA
ENDROOT
BRANCH   1   5
ATOM      5  C   UNL     1      -1.133  -0.146   0.000  0.00  0.00    +0.000 C 
ATOM      6  C   UNL     1      -1.848  -0.559   0.000  0.00  0.00    +0.000 C 
ATOM      7  C   UNL     1      -2.562  -0.146   0.000  0.00  0.00    +0.000 C 
ATOM      8  C   UNL     1      -2.562   0.679   0.000  0.00  0.00    +0.000 C 
ATOM      9  C   UNL     1      -1.848   1.091   0.000  0.00  0.00    +0.000 C 
ATOM     10  C   UNL     1      -1.133   0.679   0.000  0.00  0.00    +0.000 C 
ENDBRANCH   1   5
BRANCH   3  11
ATOM     11  C   UNL     1       1.725  -0.146   0.000  0.00  0.00    +0.000 C 
BRANCH  11  12
ATOM     12  C   UNL     1       2.439  -0.559   0.000  0.00  0.00    +0.000 C 
ATOM     13  O   UNL     1       3.154  -0.146   0.000  0.00  0.00    +0.000 OA
ATOM     14  O   UNL     1       2.439  -1.384   0.000  0.00  0.00    +0.000 OA
ENDBRANCH  11  12
ENDBRANCH   3  11
TORSDOF 3
