REMARK  Name = NC4
REMARK  5 active torsions:
REMARK  status: ('A' for Active; 'I' for Inactive)
REMARK    1  A    between atoms: C_1  and  N_2
REMARK    2  A    between atoms: N_4  and  C_5
REMARK    3  A    between atoms: C_5  and  C_6
REMARK    4  A    between atoms: C_6  and  C_7
REMARK    5  A    between atoms: C_7  and  C_8
REMARK                            x       y       z     vdW  Elec       q    Type
REMARK                         _______ _______ _______ _____ _____    ______ ____
ROOT
ATOM      1  N   UNL     1      -1.046  -0.505   0.000  0.00  0.00    +0.000 NA
ATOM      2  C   UNL     1      -0.331  -0.092   0.000  0.00  0.00    +0.000 C 
ATOM      3  N   UNL     1       0.383  -0.505   0.000  0.00  0.00    +0.000 NA
ATOM      4  O   UNL     1      -0.331   0.733   0.000  0.00  0.00    +0.000 OA
ENDROOT
BRANCH   1   5
ATOM      5  C   UNL     1      -1.760  -0.092   0.000  0.00  0.00    +0.000 C 
ATOM      6  C   UNL     1      -2.475  -0.505   0.000  0.00  0.00    +0.000 C 
ATOM      7  C   UNL     1      -3.189  -0.092   0.000  0.00  0.00    +0.000 C 
ATOM      8  C   UNL     1      -3.189   0.733   0.000  0.00  0.00    +0.000 C 
ATOM      9  C   UNL     1      -2.475   1.145   0.000  0.00  0.00    +0.000 C 
ATOM     10  C   UNL     1      -1.760   0.733   0.000  0.00  0.00    +0.000 C 
ENDBRANCH   1   5
BRANCH   3  11
ATOM     11  C   UNL     1       1.098  -0.092   0.000  0.00  0.00    +0.000 C 
BRANCH  11  12
ATOM     12  C   UNL     1       1.812  -0.505   0.000  0.00  0.00    +0.000 C 
BRANCH  12  13
ATOM     13  C   UNL     1       2.527  -0.092   0.000  0.00  0.00    +0.000 C 
BRANCH  13  14
ATOM     14  C   UNL     1       3.241  -0.505   0.000  0.00  0.00    +0.000 C 
ATOM     15  O   UNL     1       3.956  -0.092   0.000  0.00  0.00    +0.000 OA
ATOM     16  O   UNL     1       3.241  -1.330   0.000  0.00  0.00    +0.000 OA
ENDBRANCH  13  14
ENDBRANCH  12  13
ENDBRANCH  11  12
ENDBRANCH   3  11
TORSDOF 5
