REMARK  Name = NC7
REMARK  8 active torsions:
REMARK  status: ('A' for Active; 'I' for Inactive)
REMARK    1  A    between atoms: C_1  and  N_2
REMARK    2  A    between atoms: N_4  and  C_5
REMARK    3  A    between atoms: C_5  and  C_6
REMARK    4  A    between atoms: C_6  and  C_7
REMARK    5  A    between atoms: C_7  and  C_8
REMARK    6  A    between atoms: C_8  and  C_9
REMARK    7  A    between atoms: C_9  and  C_11
REMARK    8  A    between atoms: C_11  and  C_12
REMARK                            x       y       z     vdW  Elec       q    Type
REMARK                         _______ _______ _______ _____ _____    ______ ____
ROOT
ATOM      1  N   UNL     1      -2.012  -0.489   0.000  0.00  0.00    +0.000 NA
ATOM      2  C   UNL     1      -1.297  -0.077   0.000  0.00  0.00    +0.000 C 
ATOM      3  N   UNL     1      -0.583  -0.489   0.000  0.00  0.00    +0.000 NA
ATOM      4  O   UNL     1      -1.297   0.748   0.000  0.00  0.00    +0.000 OA
ENDROOT
BRANCH   1   5
ATOM      5  C   UNL     1      -2.726  -0.077   0.000  0.00  0.00    +0.000 C 
ATOM      6  C   UNL     1      -3.441  -0.489   0.000  0.00  0.00    +0.000 C 
ATOM      7  C   UNL     1      -4.155  -0.077   0.000  0.00  0.00    +0.000 C 
ATOM      8  C   UNL     1      -4.155   0.748   0.000  0.00  0.00    +0.000 C 
ATOM      9  C   UNL     1      -3.441   1.161   0.000  0.00  0.00    +0.000 C 
ATOM     10  C   UNL     1      -2.726   0.748   0.000  0.00  0.00    +0.000 C 
ENDBRANCH   1   5
BRANCH   3  11
ATOM     11  C   UNL     1       0.132  -0.077   0.000  0.00  0.00    +0.000 C 
BRANCH  11  12
ATOM     12  C   UNL     1       0.846  -0.489   0.000  0.00  0.00    +0.000 C 
BRANCH  12  13
ATOM     13  C   UNL     1       1.561  -0.077   0.000  0.00  0.00    +0.000 C 
BRANCH  13  14
ATOM     14  C   UNL     1       2.275  -0.489   0.000  0.00  0.00    +0.000 C 
BRANCH  14  15
ATOM     15  C   UNL     1       2.990  -0.077   0.000  0.00  0.00    +0.000 C 
BRANCH  15  16
ATOM     16  C   UNL     1       3.704  -0.489   0.000  0.00  0.00    +0.000 C 
BRANCH  16  17
ATOM     17  C   UNL     1       4.419  -0.077   0.000  0.00  0.00    +0.000 C 
ATOM     18  O   UNL     1       5.133  -0.489   0.000  0.00  0.00    +0.000 OA
ATOM     19  O   UNL     1       4.419   0.748   0.000  0.00  0.00    +0.000 OA
ENDBRANCH  16  17
ENDBRANCH  15  16
ENDBRANCH  14  15
ENDBRANCH  13  14
ENDBRANCH  12  13
ENDBRANCH  11  12
ENDBRANCH   3  11
TORSDOF 8
