REMARK  Name = NCZ
REMARK  4 active torsions:
REMARK  status: ('A' for Active; 'I' for Inactive)
REMARK    1  A    between atoms: C_7  and  C_8
REMARK    2  A    between atoms: C_8  and  O_10
REMARK    3  A    between atoms: O_10  and  C_11
REMARK    4  A    between atoms: C_21  and  O_22
REMARK                            x       y       z     vdW  Elec       q    Type
REMARK                         _______ _______ _______ _____ _____    ______ ____
ROOT
ATOM      1  C   UNL     1      -0.883   0.545   0.000  0.00  0.00    +0.000 A 
ATOM      2  C   UNL     1      -0.169   0.958   0.000  0.00  0.00    +0.000 A 
ATOM      3  C   UNL     1      -0.169   1.782   0.000  0.00  0.00    +0.000 A 
ATOM      4  C   UNL     1       0.545   2.195   0.000  0.00  0.00    +0.000 A 
ATOM      5  C   UNL     1       1.260   1.782   0.000  0.00  0.00    +0.000 A 
ATOM      6  C   UNL     1       1.260   0.958   0.000  0.00  0.00    +0.000 A 
ATOM      7  C   UNL     1       0.545   0.545   0.000  0.00  0.00    +0.000 A 
ATOM      8  O   UNL     1       1.974   0.545   0.000  0.00  0.00    +0.000 OA
ATOM      9  C   UNL     1      -0.883   2.195   0.000  0.00  0.00    +0.000 A 
ATOM     10  C   UNL     1      -1.598   1.782   0.000  0.00  0.00    +0.000 A 
ATOM     11  C   UNL     1      -1.598   0.958   0.000  0.00  0.00    +0.000 A 
ATOM     12  C   UNL     1      -0.883   3.020   0.000  0.00  0.00    +0.000 C 
ENDROOT
BRANCH   7  13
ATOM     13  C   UNL     1       0.545  -0.280   0.000  0.00  0.00    +0.000 C 
ATOM     14  O   UNL     1      -0.169  -0.693   0.000  0.00  0.00    +0.000 OA
BRANCH  13  15
ATOM     15  O   UNL     1       1.260  -0.693   0.000  0.00  0.00    +0.000 OA
BRANCH  15  16
ATOM     16  C   UNL     1       1.260  -1.518   0.000  0.00  0.00    +0.000 C 
ATOM     17  C   UNL     1       1.927  -2.002   0.000  0.00  0.00    +0.000 C 
ATOM     18  C   UNL     1       1.673  -2.787   0.000  0.00  0.00    +0.000 C 
ATOM     19  C   UNL     1       0.848  -2.787   0.000  0.00  0.00    +0.000 C 
ATOM     20  C   UNL     1       0.593  -2.002   0.000  0.00  0.00    +0.000 C 
ATOM     21  O   UNL     1      -0.192  -1.748   0.000  0.00  0.00    +0.000 OA
ATOM     22  O   UNL     1       2.712  -1.748   0.000  0.00  0.00    +0.000 OA
ENDBRANCH  15  16
ENDBRANCH  13  15
ENDBRANCH   7  13
BRANCH  11  23
ATOM     23  O   UNL     1      -2.312   0.545   0.000  0.00  0.00    +0.000 OA
ATOM     24  C   UNL     1      -2.312  -0.280   0.000  0.00  0.00    +0.000 C 
ENDBRANCH  11  23
TORSDOF 4
