REMARK  Name = NDD
REMARK  2 active torsions:
REMARK  status: ('A' for Active; 'I' for Inactive)
REMARK    1  A    between atoms: C_2  and  C_11
REMARK    2  A    between atoms: C_7  and  C_14
REMARK                            x       y       z     vdW  Elec       q    Type
REMARK                         _______ _______ _______ _____ _____    ______ ____
ROOT
ATOM      1  C   UNL     1      -0.715  -0.825   0.000  0.00  0.00    +0.000 A 
ATOM      2  C   UNL     1      -1.429  -0.413   0.000  0.00  0.00    +0.000 A 
ATOM      3  C   UNL     1      -1.429   0.412   0.000  0.00  0.00    +0.000 A 
ATOM      4  C   UNL     1      -0.715   0.825   0.000  0.00  0.00    +0.000 A 
ATOM      5  C   UNL     1       0.000   0.412   0.000  0.00  0.00    +0.000 A 
ATOM      6  C   UNL     1       0.715   0.825   0.000  0.00  0.00    +0.000 A 
ATOM      7  C   UNL     1       1.429   0.412   0.000  0.00  0.00    +0.000 A 
ATOM      8  C   UNL     1       1.429  -0.413   0.000  0.00  0.00    +0.000 A 
ATOM      9  C   UNL     1       0.715  -0.825   0.000  0.00  0.00    +0.000 A 
ATOM     10  C   UNL     1       0.000  -0.413   0.000  0.00  0.00    +0.000 A 
ENDROOT
BRANCH   2  11
ATOM     11  C   UNL     1      -2.143  -0.825   0.000  0.00  0.00    +0.000 C 
ATOM     12  O   UNL     1      -2.143  -1.650   0.000  0.00  0.00    +0.000 OA
ATOM     13  O   UNL     1      -2.858  -0.413   0.000  0.00  0.00    +0.000 OA
ENDBRANCH   2  11
BRANCH   7  14
ATOM     14  C   UNL     1       2.143   0.825   0.000  0.00  0.00    +0.000 C 
ATOM     15  O   UNL     1       2.143   1.650   0.000  0.00  0.00    +0.000 OA
ATOM     16  O   UNL     1       2.858   0.412   0.000  0.00  0.00    +0.000 OA
ENDBRANCH   7  14
TORSDOF 2
