REMARK  Name = NDF
REMARK  5 active torsions:
REMARK  status: ('A' for Active; 'I' for Inactive)
REMARK    1  A    between atoms: CG_6  and  CB_7
REMARK    2  A    between atoms: CB_7  and  CA_8
REMARK    3  A    between atoms: CA_8  and  C_9
REMARK    4  A    between atoms: CA_8  and  N_12
REMARK    5  A    between atoms: C_13  and  C_15
REMARK                            x       y       z     vdW  Elec       q    Type
REMARK                         _______ _______ _______ _____ _____    ______ ____
ROOT
ATOM      1  CA  PHE A   1       0.469   0.099   0.000  0.00  0.00    +0.000 C 
ENDROOT
BRANCH   1   2
ATOM      2  C   PHE A   1       0.057   0.813   0.000  0.00  0.00    +0.000 C 
ATOM      3  O   PHE A   1      -0.768   0.813   0.000  0.00  0.00    +0.000 OA
ATOM      4  OXT PHE A   1       0.469   1.528   0.000  0.00  0.00    +0.000 OA
ENDBRANCH   1   2
BRANCH   1   5
ATOM      5  N   PHE A   1       1.294   0.099   0.000  0.00  0.00    +0.000 NA
ATOM      6  C   UNK A   0       1.707   0.813   0.000  0.00  0.00    +0.000 C 
ATOM      7  O   UNK A   0       1.294   1.528   0.000  0.00  0.00    +0.000 OA
BRANCH   6   8
ATOM      8  C   UNK A   0       2.532   0.813   0.000  0.00  0.00    +0.000 C 
ATOM      9  O   UNK A   0       2.944   1.528   0.000  0.00  0.00    +0.000 OA
ATOM     10  O   UNK A   0       2.944   0.099   0.000  0.00  0.00    +0.000 OA
ENDBRANCH   6   8
ENDBRANCH   1   5
BRANCH   1  11
ATOM     11  CB  PHE A   1       0.057  -0.616   0.000  0.00  0.00    +0.000 C 
BRANCH  11  17
ATOM     12  CD1 PHE A   1      -1.181  -1.330   0.000  0.00  0.00    +0.000 A 
ATOM     13  CE1 PHE A   1      -2.006  -1.330   0.000  0.00  0.00    +0.000 A 
ATOM     14  CZ  PHE A   1      -2.418  -0.616   0.000  0.00  0.00    +0.000 A 
ATOM     15  CE2 PHE A   1      -2.006   0.099   0.000  0.00  0.00    +0.000 A 
ATOM     16  CD2 PHE A   1      -1.181   0.099   0.000  0.00  0.00    +0.000 A 
ATOM     17  CG  PHE A   1      -0.768  -0.616   0.000  0.00  0.00    +0.000 A 
ENDBRANCH  11  17
ENDBRANCH   1  11
TORSDOF 5
