REMARK  Name = NDH
REMARK  0 active torsions:
REMARK  status: ('A' for Active; 'I' for Inactive)
REMARK                            x       y       z     vdW  Elec       q    Type
REMARK                         _______ _______ _______ _____ _____    ______ ____
ROOT
ATOM      1  O   UNL     1      -0.460   1.453   0.000  0.00  0.00    +0.000 OA
ATOM      2  C   UNL     1      -0.460   0.628   0.000  0.00  0.00    +0.000 C 
ATOM      3  C   UNL     1      -1.175   0.216   0.000  0.00  0.00    +0.000 C 
ATOM      4  O   UNL     1      -1.889   0.628   0.000  0.00  0.00    +0.000 OA
ATOM      5  C   UNL     1      -1.175  -0.609   0.000  0.00  0.00    +0.000 C 
ATOM      6  C   UNL     1      -0.460  -1.022   0.000  0.00  0.00    +0.000 C 
ATOM      7  C   UNL     1       0.254  -0.609   0.000  0.00  0.00    +0.000 A 
ATOM      8  C   UNL     1       0.254   0.216   0.000  0.00  0.00    +0.000 A 
ATOM      9  C   UNL     1       0.969   0.628   0.000  0.00  0.00    +0.000 A 
ATOM     10  C   UNL     1       0.969  -1.022   0.000  0.00  0.00    +0.000 A 
ATOM     11  C   UNL     1       1.683  -0.609   0.000  0.00  0.00    +0.000 A 
ATOM     12  C   UNL     1       1.683   0.216   0.000  0.00  0.00    +0.000 A 
ENDROOT
TORSDOF 0
