REMARK  Name = NDT
REMARK  2 active torsions:
REMARK  status: ('A' for Active; 'I' for Inactive)
REMARK    1  A    between atoms: N_9  and  S_12
REMARK    2  A    between atoms: S_12  and  C_15
REMARK                            x       y       z     vdW  Elec       q    Type
REMARK                         _______ _______ _______ _____ _____    ______ ____
ROOT
ATOM      1  C   UNL     1      -1.628  -1.521   0.000  0.00  0.00    +0.000 A 
ATOM      2  C   UNL     1      -1.628  -0.696   0.000  0.00  0.00    +0.000 A 
ATOM      3  C   UNL     1      -2.342  -0.283   0.000  0.00  0.00    +0.000 A 
ATOM      4  C   UNL     1      -3.057  -0.696   0.000  0.00  0.00    +0.000 A 
ATOM      5  C   UNL     1      -3.057  -1.521   0.000  0.00  0.00    +0.000 A 
ATOM      6  C   UNL     1      -2.342  -1.933   0.000  0.00  0.00    +0.000 A 
ATOM      7  C   UNL     1      -0.913  -1.933   0.000  0.00  0.00    +0.000 A 
ATOM      8  N   UNL     1      -0.199  -1.521   0.000  0.00  0.00    +0.000 NA
ATOM      9  N   UNL     1      -0.199  -0.696   0.000  0.00  0.00    +0.000 N 
ATOM     10  B   UNL     1      -0.913  -0.283   0.000  0.00  0.00    +0.000 B 
ATOM     11  O   UNL     1      -0.913   0.541   0.000  0.00  0.00    +0.000 OA
ENDROOT
BRANCH   9  12
ATOM     12  S   UNL     1       0.516  -0.283   0.000  0.00  0.00    +0.000 S 
ATOM     13  O   UNL     1       0.928  -0.998   0.000  0.00  0.00    +0.000 OA
ATOM     14  O   UNL     1       0.103   0.431   0.000  0.00  0.00    +0.000 OA
BRANCH  12  15
ATOM     15  C   UNL     1       1.230   0.129   0.000  0.00  0.00    +0.000 A 
ATOM     16  C   UNL     1       1.230   0.954   0.000  0.00  0.00    +0.000 A 
ATOM     17  C   UNL     1       1.945   1.367   0.000  0.00  0.00    +0.000 A 
ATOM     18  C   UNL     1       2.659   0.954   0.000  0.00  0.00    +0.000 A 
ATOM     19  C   UNL     1       2.659   0.129   0.000  0.00  0.00    +0.000 A 
ATOM     20  C   UNL     1       1.945  -0.283   0.000  0.00  0.00    +0.000 A 
ATOM     21  C   UNL     1       3.374   1.367   0.000  0.00  0.00    +0.000 C 
ENDBRANCH  12  15
ENDBRANCH   9  12
TORSDOF 2
