REMARK  Name = NE8
REMARK  3 active torsions:
REMARK  status: ('A' for Active; 'I' for Inactive)
REMARK    1  A    between atoms: C_1  and  C_2
REMARK    2  A    between atoms: C_1  and  C_18
REMARK    3  A    between atoms: C_2  and  C_3
REMARK                            x       y       z     vdW  Elec       q    Type
REMARK                         _______ _______ _______ _____ _____    ______ ____
ROOT
ATOM      1  C   UNL     1       0.001  -0.519   0.000  0.00  0.00    +0.000 A 
ATOM      2  C   UNL     1       0.716  -0.932   0.000  0.00  0.00    +0.000 A 
ATOM      3  N   UNL     1       1.430  -0.519   0.000  0.00  0.00    +0.000 NA
ATOM      4  C   UNL     1       2.145  -0.932   0.000  0.00  0.00    +0.000 A 
ATOM      5  N   UNL     1       2.859  -0.519   0.000  0.00  0.00    +0.000 NA
ATOM      6  N   UNL     1       2.145  -1.757   0.000  0.00  0.00    +0.000 NA
ATOM      7  C   UNL     1       1.430  -2.169   0.000  0.00  0.00    +0.000 A 
ATOM      8  O   UNL     1       1.430  -2.994   0.000  0.00  0.00    +0.000 OA
ATOM      9  C   UNL     1       0.716  -1.757   0.000  0.00  0.00    +0.000 A 
ATOM     10  C   UNL     1       0.001  -2.169   0.000  0.00  0.00    +0.000 A 
ATOM     11  C   UNL     1      -0.713  -1.757   0.000  0.00  0.00    +0.000 A 
ATOM     12  N   UNL     1      -1.498  -2.011   0.000  0.00  0.00    +0.000 NA
ATOM     13  C   UNL     1      -1.983  -1.344   0.000  0.00  0.00    +0.000 A 
ATOM     14  N   UNL     1      -1.498  -0.677   0.000  0.00  0.00    +0.000 NA
ATOM     15  C   UNL     1      -0.713  -0.932   0.000  0.00  0.00    +0.000 A 
ENDROOT
BRANCH   1  16
ATOM     16  C   UNL     1       0.001   0.306   0.000  0.00  0.00    +0.000 C 
BRANCH  16  17
ATOM     17  C   UNL     1      -0.713   0.718   0.000  0.00  0.00    +0.000 C 
BRANCH  17  18
ATOM     18  C   UNL     1      -0.713   1.543   0.000  0.00  0.00    +0.000 A 
ATOM     19  C   UNL     1      -1.427   1.956   0.000  0.00  0.00    +0.000 A 
ATOM     20  C   UNL     1      -1.427   2.781   0.000  0.00  0.00    +0.000 A 
ATOM     21  C   UNL     1      -0.713   3.193   0.000  0.00  0.00    +0.000 A 
ATOM     22  C   UNL     1       0.001   2.781   0.000  0.00  0.00    +0.000 A 
ATOM     23  C   UNL     1       0.001   1.956   0.000  0.00  0.00    +0.000 A 
ENDBRANCH  17  18
ENDBRANCH  16  17
ENDBRANCH   1  16
TORSDOF 3
