REMARK  Name = NEZ
REMARK  3 active torsions:
REMARK  status: ('A' for Active; 'I' for Inactive)
REMARK    1  A    between atoms: C_1  and  C_2
REMARK    2  A    between atoms: C_1  and  C_17
REMARK    3  A    between atoms: C_17  and  C_18
REMARK                            x       y       z     vdW  Elec       q    Type
REMARK                         _______ _______ _______ _____ _____    ______ ____
ROOT
ATOM      1  C   UNL     1      -0.001  -0.838   0.000  0.00  0.00    +0.000 A 
ATOM      2  C   UNL     1       0.714  -1.251   0.000  0.00  0.00    +0.000 A 
ATOM      3  N   UNL     1       1.428  -0.838   0.000  0.00  0.00    +0.000 NA
ATOM      4  C   UNL     1       2.143  -1.251   0.000  0.00  0.00    +0.000 A 
ATOM      5  N   UNL     1       2.857  -0.838   0.000  0.00  0.00    +0.000 NA
ATOM      6  N   UNL     1       2.143  -2.076   0.000  0.00  0.00    +0.000 NA
ATOM      7  C   UNL     1       1.428  -2.488   0.000  0.00  0.00    +0.000 A 
ATOM      8  O   UNL     1       1.428  -3.313   0.000  0.00  0.00    +0.000 OA
ATOM      9  C   UNL     1       0.714  -2.076   0.000  0.00  0.00    +0.000 A 
ATOM     10  C   UNL     1      -0.001  -2.488   0.000  0.00  0.00    +0.000 A 
ATOM     11  C   UNL     1      -0.715  -2.076   0.000  0.00  0.00    +0.000 A 
ATOM     12  N   UNL     1      -1.500  -2.331   0.000  0.00  0.00    +0.000 NA
ATOM     13  C   UNL     1      -1.985  -1.663   0.000  0.00  0.00    +0.000 A 
ATOM     14  N   UNL     1      -1.500  -0.996   0.000  0.00  0.00    +0.000 NA
ATOM     15  C   UNL     1      -0.715  -1.251   0.000  0.00  0.00    +0.000 A 
ENDROOT
BRANCH   1  16
ATOM     16  C   UNL     1      -0.001  -0.013   0.000  0.00  0.00    +0.000 C 
BRANCH  16  17
ATOM     17  C   UNL     1      -0.715   0.399   0.000  0.00  0.00    +0.000 C 
BRANCH  17  18
ATOM     18  C   UNL     1      -0.715   1.224   0.000  0.00  0.00    +0.000 A 
ATOM     19  C   UNL     1      -1.430   1.637   0.000  0.00  0.00    +0.000 A 
ATOM     20  C   UNL     1      -1.430   2.462   0.000  0.00  0.00    +0.000 A 
ATOM     21  C   UNL     1      -0.715   2.874   0.000  0.00  0.00    +0.000 A 
ATOM     22  C   UNL     1      -0.715   3.699   0.000  0.00  0.00    +0.000 C 
ATOM     23  C   UNL     1      -0.001   2.462   0.000  0.00  0.00    +0.000 A 
ATOM     24  C   UNL     1      -0.001   1.637   0.000  0.00  0.00    +0.000 A 
ENDBRANCH  17  18
ENDBRANCH  16  17
ENDBRANCH   1  16
TORSDOF 3
