REMARK  Name = NFG
REMARK  5 active torsions:
REMARK  status: ('A' for Active; 'I' for Inactive)
REMARK    1  A    between atoms: C_1  and  O_2
REMARK    2  A    between atoms: O_2  and  C_13
REMARK    3  A    between atoms: C_9  and  C_10
REMARK    4  A    between atoms: C_14  and  N_15
REMARK    5  A    between atoms: C_19  and  N_20
REMARK                            x       y       z     vdW  Elec       q    Type
REMARK                         _______ _______ _______ _____ _____    ______ ____
ROOT
ATOM      1  O   UNL     1      -0.890   0.881   0.000  0.00  0.00    +0.000 OA
ENDROOT
BRANCH   1   2
ATOM      2  C   UNL     1      -0.890   0.056   0.000  0.00  0.00    +0.000 C 
ATOM      3  C   UNL     1      -0.176  -0.356   0.000  0.00  0.00    +0.000 C 
ATOM      4  F   UNL     1       0.538   0.056   0.000  0.00  0.00    +0.000 F 
ATOM      5  C   UNL     1      -0.176  -1.181   0.000  0.00  0.00    +0.000 C 
ATOM      6  O   UNL     1       0.538  -1.594   0.000  0.00  0.00    +0.000 OA
ATOM      7  C   UNL     1      -0.890  -1.594   0.000  0.00  0.00    +0.000 C 
ATOM      8  O   UNL     1      -0.890  -2.419   0.000  0.00  0.00    +0.000 OA
ATOM      9  C   UNL     1      -1.605  -1.181   0.000  0.00  0.00    +0.000 C 
ATOM     10  O   UNL     1      -1.605  -0.356   0.000  0.00  0.00    +0.000 OA
BRANCH   9  11
ATOM     11  C   UNL     1      -2.320  -1.594   0.000  0.00  0.00    +0.000 C 
ATOM     12  O   UNL     1      -3.034  -1.181   0.000  0.00  0.00    +0.000 OA
ENDBRANCH   9  11
ENDBRANCH   1   2
BRANCH   1  13
ATOM     13  C   UNL     1      -0.176   1.294   0.000  0.00  0.00    +0.000 A 
ATOM     14  C   UNL     1      -0.176   2.119   0.000  0.00  0.00    +0.000 A 
ATOM     15  C   UNL     1       0.538   2.531   0.000  0.00  0.00    +0.000 A 
ATOM     16  C   UNL     1       1.253   2.119   0.000  0.00  0.00    +0.000 A 
ATOM     17  C   UNL     1       1.253   1.294   0.000  0.00  0.00    +0.000 A 
ATOM     18  C   UNL     1       0.538   0.881   0.000  0.00  0.00    +0.000 A 
BRANCH  14  19
ATOM     19  N   UNL     1      -0.890   2.531   0.000  0.00  0.00    +0.000 N 
ATOM     20  O   UNL     1      -0.890   3.356   0.000  0.00  0.00    +0.000 OA
ATOM     21  O   UNL     1      -1.605   2.119   0.000  0.00  0.00    +0.000 OA
ENDBRANCH  14  19
BRANCH  16  22
ATOM     22  N   UNL     1       1.967   2.531   0.000  0.00  0.00    +0.000 N 
ATOM     23  O   UNL     1       1.967   3.356   0.000  0.00  0.00    +0.000 OA
ATOM     24  O   UNL     1       2.682   2.119   0.000  0.00  0.00    +0.000 OA
ENDBRANCH  16  22
ENDBRANCH   1  13
TORSDOF 5
