REMARK  Name = NFT
REMARK  11 active torsions:
REMARK  status: ('A' for Active; 'I' for Inactive)
REMARK    1  A    between atoms: C_1  and  C_3
REMARK    2  A    between atoms: C_7  and  C_8
REMARK    3  A    between atoms: C_8  and  C_9
REMARK    4  A    between atoms: C_8  and  N_15
REMARK    5  A    between atoms: N_13  and  C_14
REMARK    6  A    between atoms: C_14  and  C_32
REMARK    7  A    between atoms: N_15  and  C_16
REMARK    8  A    between atoms: C_16  and  C_17
REMARK    9  A    between atoms: C_16  and  C_21
REMARK   10  A    between atoms: C_17  and  C_18
REMARK   11  A    between atoms: C_25  and  S_28
REMARK                            x       y       z     vdW  Elec       q    Type
REMARK                         _______ _______ _______ _____ _____    ______ ____
ROOT
ATOM      1  C   UNL     1       1.481  -1.519   0.000  0.00  0.00    +0.000 C 
ENDROOT
BRANCH   1   7
ATOM      2  C   UNL     1       0.052   0.131   0.000  0.00  0.00    +0.000 A 
ATOM      3  C   UNL     1      -0.662  -0.282   0.000  0.00  0.00    +0.000 A 
ATOM      4  C   UNL     1      -0.662  -1.107   0.000  0.00  0.00    +0.000 A 
ATOM      5  C   UNL     1       0.052  -1.519   0.000  0.00  0.00    +0.000 A 
ATOM      6  C   UNL     1       0.767  -0.282   0.000  0.00  0.00    +0.000 A 
ATOM      7  C   UNL     1       0.767  -1.107   0.000  0.00  0.00    +0.000 A 
BRANCH   3   8
ATOM      8  C   UNL     1      -1.377   0.131   0.000  0.00  0.00    +0.000 A 
ATOM      9  C   UNL     1      -2.091  -0.282   0.000  0.00  0.00    +0.000 A 
ATOM     10  C   UNL     1      -2.806   0.131   0.000  0.00  0.00    +0.000 A 
ATOM     11  C   UNL     1      -2.806   0.956   0.000  0.00  0.00    +0.000 A 
ATOM     12  C   UNL     1      -2.091   1.368   0.000  0.00  0.00    +0.000 A 
ATOM     13  C   UNL     1      -1.377   0.956   0.000  0.00  0.00    +0.000 A 
BRANCH  11  14
ATOM     14  S   UNL     1      -3.520   1.368   0.000  0.00  0.00    +0.000 S 
ATOM     15  N   UNL     1      -4.234   1.781   0.000  0.00  0.00    +0.000 NA
ATOM     16  O   UNL     1      -3.108   2.083   0.000  0.00  0.00    +0.000 OA
ATOM     17  O   UNL     1      -3.933   0.654   0.000  0.00  0.00    +0.000 OA
ENDBRANCH  11  14
ENDBRANCH   3   8
ENDBRANCH   1   7
BRANCH   1  18
ATOM     18  C   UNL     1       1.481  -2.344   0.000  0.00  0.00    +0.000 C 
ATOM     19  F   UNL     1       0.656  -2.344   0.000  0.00  0.00    +0.000 F 
ATOM     20  F   UNL     1       1.481  -3.169   0.000  0.00  0.00    +0.000 F 
ATOM     21  F   UNL     1       2.306  -2.344   0.000  0.00  0.00    +0.000 F 
ENDBRANCH   1  18
BRANCH   1  22
ATOM     22  N   UNL     1       2.196  -1.107   0.000  0.00  0.00    +0.000 NA
BRANCH  22  23
ATOM     23  C   UNL     1       2.910  -1.519   0.000  0.00  0.00    +0.000 C 
BRANCH  23  25
ATOM     24  N   UNL     1       4.339  -1.519   0.000  0.00  0.00    +0.000 NA
ATOM     25  C   UNL     1       3.625  -1.107   0.000  0.00  0.00    +0.000 C 
ATOM     26  O   UNL     1       3.625  -0.282   0.000  0.00  0.00    +0.000 OA
BRANCH  24  27
ATOM     27  C   UNL     1       5.054  -1.107   0.000  0.00  0.00    +0.000 C 
BRANCH  27  28
ATOM     28  C   UNL     1       5.768  -1.519   0.000  0.00  0.00    +0.000 C 
ATOM     29  N   UNL     1       6.482  -1.107   0.000  0.00  0.00    +0.000 NA
ENDBRANCH  27  28
ENDBRANCH  24  27
ENDBRANCH  23  25
BRANCH  23  30
ATOM     30  C   UNL     1       2.910  -2.344   0.000  0.00  0.00    +0.000 C 
BRANCH  30  31
ATOM     31  C   UNL     1       3.625  -2.757   0.000  0.00  0.00    +0.000 C 
ATOM     32  C   UNL     1       4.339  -2.344   0.000  0.00  0.00    +0.000 C 
ATOM     33  C   UNL     1       3.625  -3.582   0.000  0.00  0.00    +0.000 C 
ENDBRANCH  30  31
ENDBRANCH  23  30
ENDBRANCH  22  23
ENDBRANCH   1  22
TORSDOF 11
