REMARK  Name = NGH
REMARK  7 active torsions:
REMARK  status: ('A' for Active; 'I' for Inactive)
REMARK    1  A    between atoms: C_3  and  O_7
REMARK    2  A    between atoms: C_6  and  S_9
REMARK    3  A    between atoms: S_9  and  N_12
REMARK    4  A    between atoms: N_12  and  C_13
REMARK    5  A    between atoms: N_12  and  C_14
REMARK    6  A    between atoms: C_13  and  C_19
REMARK    7  A    between atoms: C_14  and  C_15
REMARK                            x       y       z     vdW  Elec       q    Type
REMARK                         _______ _______ _______ _____ _____    ______ ____
ROOT
ATOM      1  S   UNL     1       0.193  -0.278   0.000  0.00  0.00    +0.000 S 
ATOM      2  O   UNL     1       0.908  -0.690   0.000  0.00  0.00    +0.000 OA
ATOM      3  O   UNL     1      -0.521   0.135   0.000  0.00  0.00    +0.000 OA
ENDROOT
BRANCH   1   9
ATOM      4  C   UNL     1       0.193  -1.707   0.000  0.00  0.00    +0.000 A 
ATOM      5  C   UNL     1      -0.219  -2.421   0.000  0.00  0.00    +0.000 A 
ATOM      6  C   UNL     1      -1.044  -2.421   0.000  0.00  0.00    +0.000 A 
ATOM      7  C   UNL     1      -1.457  -1.707   0.000  0.00  0.00    +0.000 A 
ATOM      8  C   UNL     1      -1.044  -0.992   0.000  0.00  0.00    +0.000 A 
ATOM      9  C   UNL     1      -0.219  -0.992   0.000  0.00  0.00    +0.000 A 
BRANCH   6  10
ATOM     10  O   UNL     1      -1.457  -3.136   0.000  0.00  0.00    +0.000 OA
ATOM     11  C   UNL     1      -2.282  -3.136   0.000  0.00  0.00    +0.000 C 
ENDBRANCH   6  10
ENDBRANCH   1   9
BRANCH   1  12
ATOM     12  N   UNL     1       0.606   0.437   0.000  0.00  0.00    +0.000 NA
BRANCH  12  13
ATOM     13  C   UNL     1       1.431   0.437   0.000  0.00  0.00    +0.000 C 
BRANCH  13  14
ATOM     14  C   UNL     1       1.843   1.151   0.000  0.00  0.00    +0.000 C 
ATOM     15  N   UNL     1       2.668   1.151   0.000  0.00  0.00    +0.000 NA
ATOM     16  O   UNL     1       3.081   1.866   0.000  0.00  0.00    +0.000 OA
ATOM     17  O   UNL     1       1.431   1.866   0.000  0.00  0.00    +0.000 OA
ENDBRANCH  13  14
ENDBRANCH  12  13
BRANCH  12  18
ATOM     18  C   UNL     1       0.193   1.151   0.000  0.00  0.00    +0.000 C 
BRANCH  18  19
ATOM     19  C   UNL     1      -0.632   1.151   0.000  0.00  0.00    +0.000 C 
ATOM     20  C   UNL     1      -1.044   0.437   0.000  0.00  0.00    +0.000 C 
ATOM     21  C   UNL     1      -1.044   1.866   0.000  0.00  0.00    +0.000 C 
ENDBRANCH  18  19
ENDBRANCH  12  18
ENDBRANCH   1  12
TORSDOF 7
