REMARK  Name = NHB
REMARK  5 active torsions:
REMARK  status: ('A' for Active; 'I' for Inactive)
REMARK    1  A    between atoms: C_6  and  C_7
REMARK    2  A    between atoms: C_11  and  S_12
REMARK    3  A    between atoms: S_12  and  N_15
REMARK    4  A    between atoms: N_15  and  C_17
REMARK    5  A    between atoms: C_22  and  C_23
REMARK                            x       y       z     vdW  Elec       q    Type
REMARK                         _______ _______ _______ _____ _____    ______ ____
ROOT
ATOM      1  S   UNL     1       0.430  -0.028   0.000  0.00  0.00    +0.000 S 
ATOM      2  O   UNL     1      -0.238  -0.513   0.000  0.00  0.00    +0.000 OA
ATOM      3  O   UNL     1       1.097   0.457   0.000  0.00  0.00    +0.000 OA
ENDROOT
BRANCH   1   8
ATOM      4  C   UNL     1      -0.468   1.909   0.000  0.00  0.00    +0.000 A 
ATOM      5  S   UNL     1       0.200   1.424   0.000  0.00  0.00    +0.000 S 
ATOM      6  C   UNL     1      -1.135   1.424   0.000  0.00  0.00    +0.000 A 
ATOM      7  C   UNL     1      -0.880   0.640   0.000  0.00  0.00    +0.000 A 
ATOM      8  C   UNL     1      -0.055   0.640   0.000  0.00  0.00    +0.000 A 
BRANCH   4  14
ATOM      9  C   UNL     1      -1.182   3.147   0.000  0.00  0.00    +0.000 A 
ATOM     10  C   UNL     1      -1.182   3.972   0.000  0.00  0.00    +0.000 A 
ATOM     11  C   UNL     1      -0.468   4.384   0.000  0.00  0.00    +0.000 A 
ATOM     12  C   UNL     1       0.247   3.972   0.000  0.00  0.00    +0.000 A 
ATOM     13  N   UNL     1       0.247   3.147   0.000  0.00  0.00    +0.000 NA
ATOM     14  C   UNL     1      -0.468   2.734   0.000  0.00  0.00    +0.000 A 
ENDBRANCH   4  14
ENDBRANCH   1   8
BRANCH   1  15
ATOM     15  N   UNL     1       0.915  -0.695   0.000  0.00  0.00    +0.000 N 
ATOM     16  C   UNL     1       1.735  -0.609   0.000  0.00  0.00    +0.000 C 
BRANCH  15  17
ATOM     17  C   UNL     1       0.579  -1.449   0.000  0.00  0.00    +0.000 A 
ATOM     18  C   UNL     1       1.064  -2.116   0.000  0.00  0.00    +0.000 A 
ATOM     19  C   UNL     1       0.729  -2.870   0.000  0.00  0.00    +0.000 A 
ATOM     20  C   UNL     1      -0.241  -1.535   0.000  0.00  0.00    +0.000 A 
ATOM     21  C   UNL     1      -0.577  -2.289   0.000  0.00  0.00    +0.000 A 
ATOM     22  C   UNL     1      -0.092  -2.956   0.000  0.00  0.00    +0.000 A 
BRANCH  22  23
ATOM     23  C   UNL     1      -0.427  -3.710   0.000  0.00  0.00    +0.000 C 
ATOM     24  O   UNL     1       0.057  -4.377   0.000  0.00  0.00    +0.000 OA
ATOM     25  N   UNL     1      -1.248  -3.796   0.000  0.00  0.00    +0.000 NA
ATOM     26  O   UNL     1      -1.584  -4.550   0.000  0.00  0.00    +0.000 OA
ENDBRANCH  22  23
ENDBRANCH  15  17
ENDBRANCH   1  15
TORSDOF 5
