REMARK  Name = NHL
REMARK  6 active torsions:
REMARK  status: ('A' for Active; 'I' for Inactive)
REMARK    1  A    between atoms: C_10  and  C_11
REMARK    2  A    between atoms: C_11  and  C_12
REMARK    3  A    between atoms: C_12  and  C_13
REMARK    4  A    between atoms: C_12  and  C_16
REMARK    5  A    between atoms: C_16  and  CA_17
REMARK    6  A    between atoms: CA_17  and  C_19
REMARK                            x       y       z     vdW  Elec       q    Type
REMARK                         _______ _______ _______ _____ _____    ______ ____
ROOT
ATOM      1  C   UNL     1      -0.841  -2.123   0.000  0.00  0.00    +0.000 C 
ENDROOT
BRANCH   1  11
ATOM      2  C   UNL     1      -2.079  -2.838   0.000  0.00  0.00    +0.000 A 
ATOM      3  C   UNL     1      -2.904  -2.838   0.000  0.00  0.00    +0.000 A 
ATOM      4  C   UNL     1      -3.316  -2.123   0.000  0.00  0.00    +0.000 A 
ATOM      5  C   UNL     1      -4.141  -2.123   0.000  0.00  0.00    +0.000 A 
ATOM      6  C   UNL     1      -4.554  -1.409   0.000  0.00  0.00    +0.000 A 
ATOM      7  C   UNL     1      -4.141  -0.694   0.000  0.00  0.00    +0.000 A 
ATOM      8  C   UNL     1      -3.316  -0.694   0.000  0.00  0.00    +0.000 A 
ATOM      9  C   UNL     1      -2.904  -1.409   0.000  0.00  0.00    +0.000 A 
ATOM     10  C   UNL     1      -2.079  -1.409   0.000  0.00  0.00    +0.000 A 
ATOM     11  C   UNL     1      -1.666  -2.123   0.000  0.00  0.00    +0.000 A 
ENDBRANCH   1  11
BRANCH   1  12
ATOM     12  C   UNL     1      -0.429  -1.409   0.000  0.00  0.00    +0.000 C 
BRANCH  12  13
ATOM     13  C   UNL     1      -0.841  -0.694   0.000  0.00  0.00    +0.000 C 
ATOM     14  O   UNL     1      -0.429   0.020   0.000  0.00  0.00    +0.000 OA
ATOM     15  O   UNL     1      -1.666  -0.694   0.000  0.00  0.00    +0.000 OA
ENDBRANCH  12  13
BRANCH  12  16
ATOM     16  C   UNL     1       0.396  -1.409   0.000  0.00  0.00    +0.000 C 
BRANCH  16  17
ATOM     17  CA  UNL     1       0.809  -0.694   0.000  0.00  0.00    +0.000 C 
ATOM     18  N   UNL     1       0.396   0.020   0.000  0.00  0.00    +0.000 NA
BRANCH  17  19
ATOM     19  C   UNL     1       1.634  -0.694   0.000  0.00  0.00    +0.000 C 
ATOM     20  OXT UNL     1       2.046  -1.409   0.000  0.00  0.00    +0.000 OA
ATOM     21  O   UNL     1       2.046   0.020   0.000  0.00  0.00    +0.000 OA
ENDBRANCH  17  19
ENDBRANCH  16  17
ENDBRANCH  12  16
ENDBRANCH   1  12
TORSDOF 6
