REMARK  Name = NIP
REMARK  9 active torsions:
REMARK  status: ('A' for Active; 'I' for Inactive)
REMARK    1  A    between atoms: C_1  and  C_12
REMARK    2  A    between atoms: C_3  and  N_4
REMARK    3  A    between atoms: C_12  and  C_13
REMARK    4  A    between atoms: N_15  and  C_16
REMARK    5  A    between atoms: C_16  and  C_17
REMARK    6  A    between atoms: C_17  and  C_18
REMARK    7  A    between atoms: C_18  and  C_19
REMARK    8  A    between atoms: C_19  and  C_20
REMARK    9  A    between atoms: C_20  and  C_21
REMARK                            x       y       z     vdW  Elec       q    Type
REMARK                         _______ _______ _______ _____ _____    ______ ____
ROOT
ATOM      1  C   UNL     1       1.449   2.529   0.000  0.00  0.00    +0.000 C 
ENDROOT
BRANCH   1   2
ATOM      2  C   UNL     1       0.735   2.941   0.000  0.00  0.00    +0.000 A 
ATOM      3  C   UNL     1       0.021   2.529   0.000  0.00  0.00    +0.000 A 
ATOM      4  C   UNL     1      -0.694   2.941   0.000  0.00  0.00    +0.000 A 
ATOM      5  C   UNL     1      -0.694   3.766   0.000  0.00  0.00    +0.000 A 
ATOM      6  O   UNL     1      -1.408   4.179   0.000  0.00  0.00    +0.000 OA
ATOM      7  C   UNL     1       0.021   4.179   0.000  0.00  0.00    +0.000 A 
ATOM      8  I   UNL     1       0.021   5.004   0.000  0.00  0.00    +0.000 I 
ATOM      9  C   UNL     1       0.735   3.766   0.000  0.00  0.00    +0.000 A 
BRANCH   4  10
ATOM     10  N   UNL     1      -1.408   2.529   0.000  0.00  0.00    +0.000 N 
ATOM     11  O   UNL     1      -2.123   2.941   0.000  0.00  0.00    +0.000 OA
ATOM     12  O   UNL     1      -1.408   1.704   0.000  0.00  0.00    +0.000 OA
ENDBRANCH   4  10
ENDBRANCH   1   2
BRANCH   1  13
ATOM     13  C   UNL     1       2.164   2.941   0.000  0.00  0.00    +0.000 C 
ATOM     14  O   UNL     1       2.164   3.766   0.000  0.00  0.00    +0.000 OA
ATOM     15  N   UNL     1       2.878   2.529   0.000  0.00  0.00    +0.000 NA
BRANCH  15  16
ATOM     16  C   UNL     1       3.593   2.941   0.000  0.00  0.00    +0.000 C 
BRANCH  16  17
ATOM     17  C   UNL     1       4.307   2.529   0.000  0.00  0.00    +0.000 C 
BRANCH  17  18
ATOM     18  C   UNL     1       5.022   2.941   0.000  0.00  0.00    +0.000 C 
BRANCH  18  19
ATOM     19  C   UNL     1       5.736   2.529   0.000  0.00  0.00    +0.000 C 
BRANCH  19  20
ATOM     20  C   UNL     1       6.451   2.941   0.000  0.00  0.00    +0.000 C 
BRANCH  20  21
ATOM     21  C   UNL     1       7.165   2.529   0.000  0.00  0.00    +0.000 C 
ATOM     22  O   UNL     1       7.880   2.941   0.000  0.00  0.00    +0.000 OA
ATOM     23  O   UNL     1       7.165   1.704   0.000  0.00  0.00    +0.000 OA
ENDBRANCH  20  21
ENDBRANCH  19  20
ENDBRANCH  18  19
ENDBRANCH  17  18
ENDBRANCH  16  17
ENDBRANCH  15  16
ENDBRANCH   1  13
TORSDOF 9
