REMARK  Name = NIU
REMARK  3 active torsions:
REMARK  status: ('A' for Active; 'I' for Inactive)
REMARK    1  A    between atoms: C_1  and  C_15
REMARK    2  A    between atoms: C_9  and  C_15
REMARK    3  A    between atoms: C_15  and  C_16
REMARK                            x       y       z     vdW  Elec       q    Type
REMARK                         _______ _______ _______ _____ _____    ______ ____
ROOT
ATOM      1  C   UNL     1      -0.614  -0.490   0.000  0.00  0.00    +0.000 A 
ATOM      2  C   UNL     1      -0.614  -1.315   0.000  0.00  0.00    +0.000 A 
ATOM      3  O   UNL     1      -1.328  -1.728   0.000  0.00  0.00    +0.000 OA
ATOM      4  O   UNL     1       0.101  -1.728   0.000  0.00  0.00    +0.000 OA
ATOM      5  C   UNL     1       0.815  -1.315   0.000  0.00  0.00    +0.000 A 
ATOM      6  C   UNL     1       0.815  -0.490   0.000  0.00  0.00    +0.000 A 
ATOM      7  C   UNL     1       0.101  -0.078   0.000  0.00  0.00    +0.000 A 
ATOM      8  O   UNL     1       0.101   0.747   0.000  0.00  0.00    +0.000 OA
ATOM      9  C   UNL     1       1.460  -1.830   0.000  0.00  0.00    +0.000 C 
ATOM     10  C   UNL     1       2.264  -1.646   0.000  0.00  0.00    +0.000 C 
ATOM     11  C   UNL     1       2.622  -0.903   0.000  0.00  0.00    +0.000 C 
ATOM     12  C   UNL     1       2.264  -0.160   0.000  0.00  0.00    +0.000 C 
ATOM     13  C   UNL     1       1.460   0.024   0.000  0.00  0.00    +0.000 C 
ENDROOT
BRANCH   1  14
ATOM     14  C   UNL     1      -1.328  -0.078   0.000  0.00  0.00    +0.000 C 
BRANCH  14  15
ATOM     15  C   UNL     1      -1.328   0.747   0.000  0.00  0.00    +0.000 A 
ATOM     16  C   UNL     1      -2.043   1.160   0.000  0.00  0.00    +0.000 A 
ATOM     17  C   UNL     1      -2.043   1.985   0.000  0.00  0.00    +0.000 A 
ATOM     18  C   UNL     1      -1.328   2.397   0.000  0.00  0.00    +0.000 A 
ATOM     19  C   UNL     1      -0.614   1.985   0.000  0.00  0.00    +0.000 A 
ATOM     20  C   UNL     1      -0.614   1.160   0.000  0.00  0.00    +0.000 A 
ENDBRANCH  14  15
BRANCH  14  21
ATOM     21  C   UNL     1      -2.043  -0.490   0.000  0.00  0.00    +0.000 C 
ATOM     22  C   UNL     1      -2.757  -0.078   0.000  0.00  0.00    +0.000 C 
ENDBRANCH  14  21
ENDBRANCH   1  14
TORSDOF 3
