REMARK  Name = NLA
REMARK  2 active torsions:
REMARK  status: ('A' for Active; 'I' for Inactive)
REMARK    1  A    between atoms: C_2  and  C_11
REMARK    2  A    between atoms: C_11  and  C_12
REMARK                            x       y       z     vdW  Elec       q    Type
REMARK                         _______ _______ _______ _____ _____    ______ ____
ROOT
ATOM      1  C   UNL     1       0.324   0.024   0.000  0.00  0.00    +0.000 A 
ATOM      2  C   UNL     1      -0.391  -0.388   0.000  0.00  0.00    +0.000 A 
ATOM      3  C   UNL     1      -1.105   0.024   0.000  0.00  0.00    +0.000 A 
ATOM      4  C   UNL     1      -1.105   0.849   0.000  0.00  0.00    +0.000 A 
ATOM      5  C   UNL     1      -0.391   1.262   0.000  0.00  0.00    +0.000 A 
ATOM      6  C   UNL     1       0.324   0.849   0.000  0.00  0.00    +0.000 A 
ATOM      7  C   UNL     1       1.038   1.262   0.000  0.00  0.00    +0.000 A 
ATOM      8  C   UNL     1       1.752   0.849   0.000  0.00  0.00    +0.000 A 
ATOM      9  C   UNL     1       1.752   0.024   0.000  0.00  0.00    +0.000 A 
ATOM     10  C   UNL     1       1.038  -0.388   0.000  0.00  0.00    +0.000 A 
ENDROOT
BRANCH   2  11
ATOM     11  C   UNL     1      -0.391  -1.213   0.000  0.00  0.00    +0.000 C 
BRANCH  11  12
ATOM     12  C   UNL     1      -1.105  -1.626   0.000  0.00  0.00    +0.000 C 
ATOM     13  O   UNL     1      -1.105  -2.451   0.000  0.00  0.00    +0.000 OA
ATOM     14  O   UNL     1      -1.820  -1.213   0.000  0.00  0.00    +0.000 OA
ENDBRANCH  11  12
ENDBRANCH   2  11
TORSDOF 2
