REMARK  Name = NLT
REMARK  14 active torsions:
REMARK  status: ('A' for Active; 'I' for Inactive)
REMARK    1  A    between atoms: N_1  and  CA_15
REMARK    2  A    between atoms: C_2  and  C_4
REMARK    3  A    between atoms: C_4  and  C_5
REMARK    4  A    between atoms: C_5  and  C_6
REMARK    5  A    between atoms: C_6  and  C_7
REMARK    6  A    between atoms: C_7  and  C_8
REMARK    7  A    between atoms: C_8  and  C_9
REMARK    8  A    between atoms: C_9  and  C_10
REMARK    9  A    between atoms: C_10  and  C_11
REMARK   10  A    between atoms: C_11  and  C_12
REMARK   11  A    between atoms: C_12  and  C_13
REMARK   12  A    between atoms: CA_15  and  CB_16
REMARK   13  A    between atoms: CA_15  and  C_24
REMARK   14  A    between atoms: CB_16  and  CG_17
REMARK                            x       y       z     vdW  Elec       q    Type
REMARK                         _______ _______ _______ _____ _____    ______ ____
ROOT
ATOM      1  N   TYR A   1       2.876   0.821   0.000  0.00  0.00    +0.000 NA
ATOM      2  C   UNK A   0       2.234   0.302   0.000  0.00  0.00    +0.000 C 
ATOM      3  O   UNK A   0       2.362  -0.513   0.000  0.00  0.00    +0.000 OA
ENDROOT
BRANCH   2   4
ATOM      4  C   UNK A   0       1.464   0.599   0.000  0.00  0.00    +0.000 C 
BRANCH   4   5
ATOM      5  C   UNK A   0       0.822   0.080   0.000  0.00  0.00    +0.000 C 
BRANCH   5   6
ATOM      6  C   UNK A   0       0.052   0.376   0.000  0.00  0.00    +0.000 C 
BRANCH   6   7
ATOM      7  C   UNK A   0      -0.589  -0.142   0.000  0.00  0.00    +0.000 C 
BRANCH   7   8
ATOM      8  C   UNK A   0      -1.359   0.154   0.000  0.00  0.00    +0.000 C 
BRANCH   8   9
ATOM      9  C   UNK A   0      -2.001  -0.364   0.000  0.00  0.00    +0.000 C 
BRANCH   9  10
ATOM     10  C   UNK A   0      -2.771  -0.068   0.000  0.00  0.00    +0.000 C 
BRANCH  10  11
ATOM     11  C   UNK A   0      -3.412  -0.587   0.000  0.00  0.00    +0.000 C 
BRANCH  11  12
ATOM     12  C   UNK A   0      -4.182  -0.290   0.000  0.00  0.00    +0.000 C 
BRANCH  12  13
ATOM     13  C   UNK A   0      -4.824  -0.809   0.000  0.00  0.00    +0.000 C 
ATOM     14  C   UNK A   0      -5.594  -0.513   0.000  0.00  0.00    +0.000 C 
ENDBRANCH  12  13
ENDBRANCH  11  12
ENDBRANCH  10  11
ENDBRANCH   9  10
ENDBRANCH   8   9
ENDBRANCH   7   8
ENDBRANCH   6   7
ENDBRANCH   5   6
ENDBRANCH   4   5
ENDBRANCH   2   4
BRANCH   1  15
ATOM     15  CA  TYR A   1       3.646   0.525   0.000  0.00  0.00    +0.000 C 
BRANCH  15  16
ATOM     16  C   TYR A   1       3.774  -0.290   0.000  0.00  0.00    +0.000 C 
ATOM     17  O   TYR A   1       4.544  -0.587   0.000  0.00  0.00    +0.000 OA
ATOM     18  OXT TYR A   1       3.132  -0.809   0.000  0.00  0.00    +0.000 OA
ENDBRANCH  15  16
BRANCH  15  19
ATOM     19  CB  TYR A   1       4.287   1.043   0.000  0.00  0.00    +0.000 C 
BRANCH  19  20
ATOM     20  CG  TYR A   1       5.057   0.747   0.000  0.00  0.00    +0.000 A 
ATOM     21  CD1 TYR A   1       5.699   1.266   0.000  0.00  0.00    +0.000 A 
ATOM     22  CE1 TYR A   1       6.469   0.969   0.000  0.00  0.00    +0.000 A 
ATOM     23  CZ  TYR A   1       6.597   0.154   0.000  0.00  0.00    +0.000 A 
ATOM     24  CE2 TYR A   1       5.955  -0.364   0.000  0.00  0.00    +0.000 A 
ATOM     25  CD2 TYR A   1       5.185  -0.068   0.000  0.00  0.00    +0.000 A 
ATOM     26  OH  TYR A   1       7.367  -0.142   0.000  0.00  0.00    +0.000 OA
ENDBRANCH  19  20
ENDBRANCH  15  19
ENDBRANCH   1  15
TORSDOF 14
