REMARK  Name = NMQ
REMARK  10 active torsions:
REMARK  status: ('A' for Active; 'I' for Inactive)
REMARK    1  A    between atoms: BE_1  and  O_8
REMARK    2  A    between atoms: P_5  and  O_8
REMARK    3  A    between atoms: P_5  and  O_9
REMARK    4  A    between atoms: O_9  and  P_10
REMARK    5  A    between atoms: P_10  and  O_13
REMARK    6  A    between atoms: O_13  and  C_16
REMARK    7  A    between atoms: N_14  and  C_15
REMARK    8  A    between atoms: N_14  and  C_17
REMARK    9  A    between atoms: C_15  and  C_16
REMARK   10  A    between atoms: C_22  and  N_23
REMARK                            x       y       z     vdW  Elec       q    Type
REMARK                         _______ _______ _______ _____ _____    ______ ____
ROOT
ATOM      1  O   UNL     1      -0.895  -0.160   0.000  0.00  0.00    +0.000 OA
ENDROOT
BRANCH   1   2
ATOM      2  P   UNL     1      -1.609   0.253   0.000  0.00  0.00    +0.000 P 
ATOM      3  O   UNL     1      -2.022  -0.462   0.000  0.00  0.00    +0.000 OA
ATOM      4  O   UNL     1      -1.197   0.967   0.000  0.00  0.00    +0.000 OA
BRANCH   2   5
ATOM      5  O   UNL     1      -2.324   0.665   0.000  0.00  0.00    +0.000 OA
BRANCH   5   6
ATOM      6  P   UNL     1      -3.038   0.253   0.000  0.00  0.00    +0.000 P 
ATOM      7  O   UNL     1      -2.626  -0.462   0.000  0.00  0.00    +0.000 OA
ATOM      8  O   UNL     1      -3.451   0.967   0.000  0.00  0.00    +0.000 OA
BRANCH   6   9
ATOM      9  O   UNL     1      -3.753  -0.160   0.000  0.00  0.00    +0.000 OA
BRANCH   9  10
ATOM     10 BE   UNL     1      -4.467   0.253   0.000  0.00  0.00    +0.000 Be
ATOM     11  F   UNL     1      -5.182   0.665   0.000  0.00  0.00    +0.000 F 
ATOM     12  F   UNL     1      -4.880  -0.462   0.000  0.00  0.00    +0.000 F 
ATOM     13  F   UNL     1      -4.055   0.967   0.000  0.00  0.00    +0.000 F 
ENDBRANCH   9  10
ENDBRANCH   6   9
ENDBRANCH   5   6
ENDBRANCH   2   5
ENDBRANCH   1   2
BRANCH   1  14
ATOM     14  C   UNL     1      -0.181   0.253   0.000  0.00  0.00    +0.000 C 
BRANCH  14  15
ATOM     15  C   UNL     1       0.534  -0.160   0.000  0.00  0.00    +0.000 C 
BRANCH  15  16
ATOM     16  N   UNL     1       1.248   0.253   0.000  0.00  0.00    +0.000 N 
ATOM     17  C   UNL     1       1.248   1.078   0.000  0.00  0.00    +0.000 C 
BRANCH  16  18
ATOM     18  C   UNL     1       1.963  -0.160   0.000  0.00  0.00    +0.000 A 
ATOM     19  C   UNL     1       2.677   0.253   0.000  0.00  0.00    +0.000 A 
ATOM     20  C   UNL     1       3.392  -0.160   0.000  0.00  0.00    +0.000 A 
ATOM     21  C   UNL     1       3.392  -0.985   0.000  0.00  0.00    +0.000 A 
ATOM     22  C   UNL     1       2.677  -1.397   0.000  0.00  0.00    +0.000 A 
ATOM     23  C   UNL     1       1.963  -0.985   0.000  0.00  0.00    +0.000 A 
BRANCH  23  24
ATOM     24  N   UNL     1       1.248  -1.397   0.000  0.00  0.00    +0.000 N 
ATOM     25  O   UNL     1       1.248  -2.222   0.000  0.00  0.00    +0.000 OA
ATOM     26  O   UNL     1       0.534  -0.985   0.000  0.00  0.00    +0.000 OA
ENDBRANCH  23  24
ENDBRANCH  16  18
ENDBRANCH  15  16
ENDBRANCH  14  15
ENDBRANCH   1  14
TORSDOF 10
