REMARK  Name = NN1
REMARK  5 active torsions:
REMARK  status: ('A' for Active; 'I' for Inactive)
REMARK    1  A    between atoms: C_1  and  O_16
REMARK    2  A    between atoms: C_7  and  N_19
REMARK    3  A    between atoms: C_11  and  S_24
REMARK    4  A    between atoms: C_14  and  O_16
REMARK    5  A    between atoms: C_14  and  C_17
REMARK                            x       y       z     vdW  Elec       q    Type
REMARK                         _______ _______ _______ _____ _____    ______ ____
ROOT
ATOM      1  C   UNL     1       0.285  -1.702   0.000  0.00  0.00    +0.000 C 
ATOM      2  O   UNL     1       1.077  -1.934   0.000  0.00  0.00    +0.000 OA
ATOM      3  N   UNL     1       0.090  -0.900   0.000  0.00  0.00    +0.000 NA
ENDROOT
BRANCH   3   4
ATOM      4  C   UNL     1       0.687  -0.331   0.000  0.00  0.00    +0.000 C 
ATOM      5  C   UNL     1       1.137   1.207   0.000  0.00  0.00    +0.000 C 
ATOM      6  C   UNL     1       1.423   0.043   0.000  0.00  0.00    +0.000 C 
ATOM      7  C   UNL     1       2.158  -0.331   0.000  0.00  0.00    +0.000 C 
ATOM      8  C   UNL     1       2.608   0.460   0.000  0.00  0.00    +0.000 C 
ATOM      9  C   UNL     1       1.872   0.086   0.000  0.00  0.00    +0.000 C 
ATOM     10  C   UNL     1       1.137   0.460   0.000  0.00  0.00    +0.000 C 
ATOM     11  C   UNL     1       1.872   1.581   0.000  0.00  0.00    +0.000 C 
ATOM     12  C   UNL     1       1.423   0.790   0.000  0.00  0.00    +0.000 C 
ATOM     13  C   UNL     1       2.608   1.207   0.000  0.00  0.00    +0.000 C 
BRANCH   8  15
ATOM     14  C   UNL     1       4.203   0.038   0.000  0.00  0.00    +0.000 C 
ATOM     15  S   UNL     1       3.405   0.249   0.000  0.00  0.00    +0.000 S 
ATOM     16  O   UNL     1       3.195  -0.549   0.000  0.00  0.00    +0.000 OA
ATOM     17  O   UNL     1       3.616   1.046   0.000  0.00  0.00    +0.000 OA
ENDBRANCH   8  15
ENDBRANCH   3   4
BRANCH   1  19
ATOM     18  C   UNL     1       0.258  -2.868   0.000  0.00  0.00    +0.000 C 
ATOM     19  C   UNL     1      -0.312  -2.271   0.000  0.00  0.00    +0.000 C 
ATOM     20  C   UNL     1      -0.881  -1.675   0.000  0.00  0.00    +0.000 C 
BRANCH  19  21
ATOM     21  O   UNL     1      -0.908  -2.841   0.000  0.00  0.00    +0.000 OA
BRANCH  21  22
ATOM     22  C   UNL     1      -0.714  -3.643   0.000  0.00  0.00    +0.000 A 
ATOM     23  C   UNL     1       0.078  -3.875   0.000  0.00  0.00    +0.000 A 
ATOM     24  C   UNL     1      -1.311  -4.212   0.000  0.00  0.00    +0.000 A 
ATOM     25  C   UNL     1      -1.116  -5.014   0.000  0.00  0.00    +0.000 A 
ATOM     26  C   UNL     1      -0.324  -5.246   0.000  0.00  0.00    +0.000 A 
ATOM     27  C   UNL     1       0.273  -4.676   0.000  0.00  0.00    +0.000 A 
ATOM     28 CL   UNL     1       0.675  -3.305   0.000  0.00  0.00    +0.000 Cl
ATOM     29  F   UNL     1      -0.129  -6.048   0.000  0.00  0.00    +0.000 F 
ENDBRANCH  21  22
ENDBRANCH  19  21
ENDBRANCH   1  19
TORSDOF 5
