REMARK  Name = NNB
REMARK  6 active torsions:
REMARK  status: ('A' for Active; 'I' for Inactive)
REMARK    1  A    between atoms: C_7  and  N_8
REMARK    2  A    between atoms: N_8  and  C_9
REMARK    3  A    between atoms: C_9  and  O_11
REMARK    4  A    between atoms: O_11  and  C_12
REMARK    5  A    between atoms: C_12  and  C_13
REMARK    6  A    between atoms: C_13  and  N_14
REMARK                            x       y       z     vdW  Elec       q    Type
REMARK                         _______ _______ _______ _____ _____    ______ ____
ROOT
ATOM      1  C   UNL     1       6.227  33.670   0.000  0.00  0.00    +0.000 C 
ENDROOT
BRANCH   1   2
ATOM      2  C   UNL     1       6.941  33.257   0.000  0.00  0.00    +0.000 C 
BRANCH   2   3
ATOM      3  N   UNL     1       7.656  33.670   0.000  0.00  0.00    +0.000 N 
ATOM      4  C   UNL     1       8.410  33.334   0.000  0.00  0.00    +0.000 C 
ATOM      5  O   UNL     1       8.581  32.527   0.000  0.00  0.00    +0.000 OA
ATOM      6  C   UNL     1       8.962  33.947   0.000  0.00  0.00    +0.000 A 
ATOM      7  C   UNL     1       9.787  33.947   0.000  0.00  0.00    +0.000 A 
ATOM      8  C   UNL     1      10.199  34.662   0.000  0.00  0.00    +0.000 A 
ATOM      9  C   UNL     1       9.787  35.376   0.000  0.00  0.00    +0.000 A 
ATOM     10  C   UNL     1       8.962  35.376   0.000  0.00  0.00    +0.000 A 
ATOM     11  C   UNL     1       8.549  34.662   0.000  0.00  0.00    +0.000 A 
ATOM     12  C   UNL     1       7.742  34.490   0.000  0.00  0.00    +0.000 C 
ATOM     13  O   UNL     1       7.129  35.042   0.000  0.00  0.00    +0.000 OA
ENDBRANCH   2   3
ENDBRANCH   1   2
BRANCH   1  14
ATOM     14  O   UNL     1       5.513  33.257   0.000  0.00  0.00    +0.000 OA
BRANCH  14  15
ATOM     15  C   UNL     1       4.798  33.670   0.000  0.00  0.00    +0.000 C 
ATOM     16  S   UNL     1       4.798  34.495   0.000  0.00  0.00    +0.000 S 
BRANCH  15  17
ATOM     17  N   UNL     1       4.084  33.257   0.000  0.00  0.00    +0.000 NA
BRANCH  17  24
ATOM     18  C   UNL     1       2.655  33.257   0.000  0.00  0.00    +0.000 A 
ATOM     19  C   UNL     1       1.940  33.670   0.000  0.00  0.00    +0.000 A 
ATOM     20  C   UNL     1       1.940  34.495   0.000  0.00  0.00    +0.000 A 
ATOM     21 BR   UNL     1       1.226  34.907   0.000  0.00  0.00    +0.000 Br
ATOM     22  C   UNL     1       2.655  34.907   0.000  0.00  0.00    +0.000 A 
ATOM     23  C   UNL     1       3.369  34.495   0.000  0.00  0.00    +0.000 A 
ATOM     24  C   UNL     1       3.369  33.670   0.000  0.00  0.00    +0.000 A 
ENDBRANCH  17  24
ENDBRANCH  15  17
ENDBRANCH  14  15
ENDBRANCH   1  14
TORSDOF 6
