REMARK  Name = NND
REMARK  9 active torsions:
REMARK  status: ('A' for Active; 'I' for Inactive)
REMARK    1  A    between atoms: C_2  and  C_3
REMARK    2  A    between atoms: N_9  and  C_10
REMARK    3  A    between atoms: C_10  and  C_11
REMARK    4  A    between atoms: C_11  and  C_13
REMARK    5  A    between atoms: C_13  and  C_14
REMARK    6  A    between atoms: C_14  and  C_15
REMARK    7  A    between atoms: C_15  and  C_16
REMARK    8  A    between atoms: C_16  and  C_17
REMARK    9  A    between atoms: C_17  and  C_19
REMARK                            x       y       z     vdW  Elec       q    Type
REMARK                         _______ _______ _______ _____ _____    ______ ____
ROOT
ATOM      1  C   UNL     1      -1.208  -0.625   0.000  0.00  0.00    +0.000 C 
ATOM      2  C   UNL     1      -1.923  -1.037   0.000  0.00  0.00    +0.000 C 
ATOM      3  O   UNL     1      -1.923  -1.862   0.000  0.00  0.00    +0.000 OA
ATOM      4  O   UNL     1      -3.352  -1.037   0.000  0.00  0.00    +0.000 OA
ATOM      5  C   UNL     1      -2.637   0.200   0.000  0.00  0.00    +0.000 C 
ATOM      6  O   UNL     1      -3.352   0.613   0.000  0.00  0.00    +0.000 OA
ATOM      7  N   UNL     1      -1.208   0.200   0.000  0.00  0.00    +0.000 NA
ATOM      8  C   UNL     1      -1.923   0.613   0.000  0.00  0.00    +0.000 C 
ATOM      9  C   UNL     1      -2.637  -0.625   0.000  0.00  0.00    +0.000 C 
ENDROOT
BRANCH   1  11
ATOM     10  O   UNL     1       0.221  -0.625   0.000  0.00  0.00    +0.000 OA
ATOM     11  C   UNL     1      -0.493  -1.037   0.000  0.00  0.00    +0.000 C 
ENDBRANCH   1  11
BRANCH   7  12
ATOM     12  C   UNL     1      -0.493   0.613   0.000  0.00  0.00    +0.000 C 
BRANCH  12  13
ATOM     13  C   UNL     1       0.221   0.200   0.000  0.00  0.00    +0.000 C 
BRANCH  13  14
ATOM     14  C   UNL     1       0.936   0.613   0.000  0.00  0.00    +0.000 C 
BRANCH  14  15
ATOM     15  C   UNL     1       1.650   0.200   0.000  0.00  0.00    +0.000 C 
BRANCH  15  16
ATOM     16  C   UNL     1       2.365   0.613   0.000  0.00  0.00    +0.000 C 
BRANCH  16  17
ATOM     17  C   UNL     1       3.079   0.200   0.000  0.00  0.00    +0.000 C 
BRANCH  17  18
ATOM     18  C   UNL     1       3.794   0.613   0.000  0.00  0.00    +0.000 C 
BRANCH  18  20
ATOM     19  C   UNL     1       5.223   0.613   0.000  0.00  0.00    +0.000 C 
ATOM     20  C   UNL     1       4.508   0.200   0.000  0.00  0.00    +0.000 C 
ENDBRANCH  18  20
ENDBRANCH  17  18
ENDBRANCH  16  17
ENDBRANCH  15  16
ENDBRANCH  14  15
ENDBRANCH  13  14
ENDBRANCH  12  13
ENDBRANCH   7  12
TORSDOF 9
