REMARK  Name = NNI
REMARK  6 active torsions:
REMARK  status: ('A' for Active; 'I' for Inactive)
REMARK    1  A    between atoms: C_7  and  N_8
REMARK    2  A    between atoms: N_8  and  C_9
REMARK    3  A    between atoms: C_9  and  O_11
REMARK    4  A    between atoms: O_11  and  C_12
REMARK    5  A    between atoms: C_12  and  C_13
REMARK    6  A    between atoms: C_13  and  N_14
REMARK                            x       y       z     vdW  Elec       q    Type
REMARK                         _______ _______ _______ _____ _____    ______ ____
ROOT
ATOM      1  C   UNL     1       6.177  33.678   0.000  0.00  0.00    +0.000 C 
ENDROOT
BRANCH   1   2
ATOM      2  C   UNL     1       6.891  33.266   0.000  0.00  0.00    +0.000 C 
BRANCH   2   3
ATOM      3  N   UNL     1       7.606  33.678   0.000  0.00  0.00    +0.000 N 
ATOM      4  C   UNL     1       8.360  33.343   0.000  0.00  0.00    +0.000 C 
ATOM      5  O   UNL     1       8.531  32.535   0.000  0.00  0.00    +0.000 OA
ATOM      6  C   UNL     1       8.912  33.956   0.000  0.00  0.00    +0.000 A 
ATOM      7  C   UNL     1       9.737  33.956   0.000  0.00  0.00    +0.000 A 
ATOM      8  C   UNL     1      10.149  34.670   0.000  0.00  0.00    +0.000 A 
ATOM      9  C   UNL     1       9.737  35.385   0.000  0.00  0.00    +0.000 A 
ATOM     10  C   UNL     1       8.912  35.385   0.000  0.00  0.00    +0.000 A 
ATOM     11  C   UNL     1       8.499  34.670   0.000  0.00  0.00    +0.000 A 
ATOM     12  C   UNL     1       7.692  34.498   0.000  0.00  0.00    +0.000 C 
ATOM     13  O   UNL     1       7.079  35.051   0.000  0.00  0.00    +0.000 OA
ENDBRANCH   2   3
ENDBRANCH   1   2
BRANCH   1  14
ATOM     14  O   UNL     1       5.463  33.266   0.000  0.00  0.00    +0.000 OA
BRANCH  14  15
ATOM     15  C   UNL     1       4.748  33.678   0.000  0.00  0.00    +0.000 C 
ATOM     16  S   UNL     1       4.748  34.503   0.000  0.00  0.00    +0.000 S 
BRANCH  15  17
ATOM     17  N   UNL     1       4.034  33.266   0.000  0.00  0.00    +0.000 NA
BRANCH  17  24
ATOM     18  C   UNL     1       2.605  33.266   0.000  0.00  0.00    +0.000 A 
ATOM     19  C   UNL     1       1.890  33.678   0.000  0.00  0.00    +0.000 A 
ATOM     20  C   UNL     1       1.890  34.503   0.000  0.00  0.00    +0.000 A 
ATOM     21  I   UNL     1       1.176  34.916   0.000  0.00  0.00    +0.000 I 
ATOM     22  C   UNL     1       2.605  34.916   0.000  0.00  0.00    +0.000 A 
ATOM     23  C   UNL     1       3.319  34.503   0.000  0.00  0.00    +0.000 A 
ATOM     24  C   UNL     1       3.319  33.678   0.000  0.00  0.00    +0.000 A 
ENDBRANCH  17  24
ENDBRANCH  15  17
ENDBRANCH  14  15
ENDBRANCH   1  14
TORSDOF 6
