REMARK  Name = NNN
REMARK  6 active torsions:
REMARK  status: ('A' for Active; 'I' for Inactive)
REMARK    1  A    between atoms: C_2  and  CA_3
REMARK    2  A    between atoms: CA_3  and  C_4
REMARK    3  A    between atoms: CA_3  and  N_6
REMARK    4  A    between atoms: C_13  and  C_14
REMARK    5  A    between atoms: N_19  and  C_20
REMARK    6  A    between atoms: C_20  and  C_21
REMARK                            x       y       z     vdW  Elec       q    Type
REMARK                         _______ _______ _______ _____ _____    ______ ____
ROOT
ATOM      1  N   UNL     1       1.429  -0.840   0.000  0.00  0.00    +0.000 NA
ATOM      2  C   UNL     1       0.714  -0.428   0.000  0.00  0.00    +0.000 A 
ATOM      3  N   UNL     1       0.714   0.397   0.000  0.00  0.00    +0.000 NA
ATOM      4  C   UNL     1      -0.000   0.810   0.000  0.00  0.00    +0.000 A 
ATOM      5  N   UNL     1      -0.715   0.397   0.000  0.00  0.00    +0.000 N 
ATOM      6  N   UNL     1      -1.499   0.652   0.000  0.00  0.00    +0.000 NA
ATOM      7  C   UNL     1      -1.984  -0.015   0.000  0.00  0.00    +0.000 A 
ATOM      8  C   UNL     1      -1.499  -0.683   0.000  0.00  0.00    +0.000 A 
ATOM      9  C   UNL     1      -0.715  -0.428   0.000  0.00  0.00    +0.000 A 
ATOM     10  N   UNL     1      -0.000  -0.840   0.000  0.00  0.00    +0.000 NA
ATOM     11  N   UNL     1      -0.000   1.635   0.000  0.00  0.00    +0.000 NA
ENDROOT
BRANCH   8  12
ATOM     12  C   UNL     1      -1.754  -1.467   0.000  0.00  0.00    +0.000 C 
ATOM     13  C   UNL     1      -1.202  -2.080   0.000  0.00  0.00    +0.000 C 
ATOM     14  C   UNL     1      -2.561  -1.639   0.000  0.00  0.00    +0.000 C 
ENDBRANCH   8  12
BRANCH   1  15
ATOM     15  CA  UNL     1       1.429  -1.665   0.000  0.00  0.00    +0.000 C 
BRANCH  15  16
ATOM     16  C   UNL     1       0.714  -2.078   0.000  0.00  0.00    +0.000 C 
ATOM     17  C   UNL     1      -0.000  -1.665   0.000  0.00  0.00    +0.000 C 
ENDBRANCH  15  16
BRANCH  15  19
ATOM     18  O   UNL     1       2.143  -2.903   0.000  0.00  0.00    +0.000 OA
ATOM     19  C   UNL     1       2.143  -2.078   0.000  0.00  0.00    +0.000 C 
ENDBRANCH  15  19
ENDBRANCH   1  15
BRANCH  11  20
ATOM     20  C   UNL     1       0.714   2.047   0.000  0.00  0.00    +0.000 C 
BRANCH  20  21
ATOM     21  C   UNL     1       0.714   2.872   0.000  0.00  0.00    +0.000 A 
ATOM     22  C   UNL     1       1.429   3.285   0.000  0.00  0.00    +0.000 A 
ATOM     23  C   UNL     1       1.429   4.110   0.000  0.00  0.00    +0.000 A 
ATOM     24  C   UNL     1       0.714   4.522   0.000  0.00  0.00    +0.000 A 
ATOM     25  C   UNL     1      -0.000   4.110   0.000  0.00  0.00    +0.000 A 
ATOM     26  C   UNL     1      -0.000   3.285   0.000  0.00  0.00    +0.000 A 
ENDBRANCH  20  21
ENDBRANCH  11  20
TORSDOF 6
