REMARK  Name = NOM
REMARK  0 active torsions:
REMARK  status: ('A' for Active; 'I' for Inactive)
REMARK                            x       y       z     vdW  Elec       q    Type
REMARK                         _______ _______ _______ _____ _____    ______ ____
ROOT
ATOM      1  C   UNL     1       2.379   1.080   0.000  0.00  0.00    +0.000 A 
ATOM      2  C   UNL     1       1.573   1.257   0.000  0.00  0.00    +0.000 A 
ATOM      3  C   UNL     1       1.017   0.648   0.000  0.00  0.00    +0.000 A 
ATOM      4  C   UNL     1       1.266  -0.138   0.000  0.00  0.00    +0.000 A 
ATOM      5  C   UNL     1       2.072  -0.315   0.000  0.00  0.00    +0.000 A 
ATOM      6  C   UNL     1       2.628   0.294   0.000  0.00  0.00    +0.000 A 
ATOM      7  C   UNL     1       0.211   0.825   0.000  0.00  0.00    +0.000 C 
ATOM      8  C   UNL     1      -0.345   0.216   0.000  0.00  0.00    +0.000 C 
ATOM      9  C   UNL     1      -0.096  -0.571   0.000  0.00  0.00    +0.000 C 
ATOM     10  C   UNL     1       0.710  -0.748   0.000  0.00  0.00    +0.000 C 
ATOM     11  O   UNL     1       0.960  -1.534   0.000  0.00  0.00    +0.000 OA
ATOM     12  O   UNL     1      -0.038   1.611   0.000  0.00  0.00    +0.000 OA
ATOM     13  O   UNL     1       2.322  -1.102   0.000  0.00  0.00    +0.000 OA
ATOM     14  C   UNL     1      -1.151   0.393   0.000  0.00  0.00    +0.000 C 
ATOM     15  C   UNL     1      -1.707  -0.216   0.000  0.00  0.00    +0.000 C 
ATOM     16  O   UNL     1      -1.458  -1.003   0.000  0.00  0.00    +0.000 OA
ATOM     17  C   UNL     1      -0.652  -1.180   0.000  0.00  0.00    +0.000 C 
ATOM     18  C   UNL     1      -0.402  -1.966   0.000  0.00  0.00    +0.000 C 
ATOM     19  C   UNL     1      -2.458   0.124   0.000  0.00  0.00    +0.000 C 
ATOM     20  C   UNL     1      -2.367   0.944   0.000  0.00  0.00    +0.000 C 
ATOM     21  O   UNL     1      -2.976   1.500   0.000  0.00  0.00    +0.000 OA
ATOM     22  O   UNL     1      -1.559   1.110   0.000  0.00  0.00    +0.000 OA
ENDROOT
TORSDOF 0
