REMARK  Name = NOQ
REMARK  7 active torsions:
REMARK  status: ('A' for Active; 'I' for Inactive)
REMARK    1  A    between atoms: C_2  and  O_7
REMARK    2  A    between atoms: C_6  and  S_19
REMARK    3  A    between atoms: C_8  and  N_9
REMARK    4  A    between atoms: C_8  and  C_23
REMARK    5  A    between atoms: C_10  and  C_12
REMARK    6  A    between atoms: C_17  and  C_18
REMARK    7  A    between atoms: C_18  and  S_19
REMARK                            x       y       z     vdW  Elec       q    Type
REMARK                         _______ _______ _______ _____ _____    ______ ____
ROOT
ATOM      1  C   UNL     1       1.100  -0.909   0.000  0.00  0.00    +0.000 C 
ATOM      2  C   UNL     1       1.100  -1.734   0.000  0.00  0.00    +0.000 C 
ATOM      3  C   UNL     1       0.385  -2.146   0.000  0.00  0.00    +0.000 C 
ATOM      4  C   UNL     1      -0.329  -1.734   0.000  0.00  0.00    +0.000 C 
ATOM      5  C   UNL     1      -0.329  -0.909   0.000  0.00  0.00    +0.000 C 
ATOM      6  C   UNL     1       0.385  -0.496   0.000  0.00  0.00    +0.000 C 
ENDROOT
BRANCH   1   8
ATOM      7  N   UNL     1       2.529  -0.909   0.000  0.00  0.00    +0.000 NA
ATOM      8  C   UNL     1       1.814  -0.496   0.000  0.00  0.00    +0.000 C 
ATOM      9  O   UNL     1       1.814   0.329   0.000  0.00  0.00    +0.000 OA
BRANCH   7  10
ATOM     10  C   UNL     1       3.243  -0.496   0.000  0.00  0.00    +0.000 C 
BRANCH  10  11
ATOM     11  C   UNL     1       3.958  -0.909   0.000  0.00  0.00    +0.000 C 
ATOM     12  N   UNL     1       4.672  -0.496   0.000  0.00  0.00    +0.000 NA
ENDBRANCH  10  11
ENDBRANCH   7  10
ENDBRANCH   1   8
BRANCH   6  13
ATOM     13  C   UNL     1       0.385   0.329   0.000  0.00  0.00    +0.000 C 
BRANCH  13  14
ATOM     14  S   UNL     1      -0.329   0.741   0.000  0.00  0.00    +0.000 S 
ATOM     15  O   UNL     1      -0.742   0.027   0.000  0.00  0.00    +0.000 OA
ATOM     16  O   UNL     1       0.083   1.456   0.000  0.00  0.00    +0.000 OA
BRANCH  14  22
ATOM     17  C   UNL     1      -2.473   1.154   0.000  0.00  0.00    +0.000 A 
ATOM     18  C   UNL     1      -2.473   1.979   0.000  0.00  0.00    +0.000 A 
ATOM     19  C   UNL     1      -1.758   2.391   0.000  0.00  0.00    +0.000 A 
ATOM     20  C   UNL     1      -1.044   1.979   0.000  0.00  0.00    +0.000 A 
ATOM     21  C   UNL     1      -1.758   0.741   0.000  0.00  0.00    +0.000 A 
ATOM     22  C   UNL     1      -1.044   1.154   0.000  0.00  0.00    +0.000 A 
BRANCH  18  23
ATOM     23  O   UNL     1      -3.187   2.391   0.000  0.00  0.00    +0.000 OA
ATOM     24  C   UNL     1      -3.901   1.979   0.000  0.00  0.00    +0.000 C 
ENDBRANCH  18  23
ENDBRANCH  14  22
ENDBRANCH  13  14
ENDBRANCH   6  13
TORSDOF 7
