REMARK  Name = NOR
REMARK  6 active torsions:
REMARK  status: ('A' for Active; 'I' for Inactive)
REMARK    1  A    between atoms: C_2  and  C_3
REMARK    2  A    between atoms: C_2  and  C_10
REMARK    3  A    between atoms: C_3  and  C_4
REMARK    4  A    between atoms: C_10  and  C_12
REMARK    5  A    between atoms: C_12  and  O_14
REMARK    6  A    between atoms: O_14  and  C_15
REMARK                            x       y       z     vdW  Elec       q    Type
REMARK                         _______ _______ _______ _____ _____    ______ ____
ROOT
ATOM      1  N   UNL     1      -0.179  -0.797   0.000  0.00  0.00    +0.000 NA
ATOM      2  C   UNL     1      -0.179   0.028   0.000  0.00  0.00    +0.000 C 
ENDROOT
BRANCH   2   3
ATOM      3  C   UNL     1       0.535   0.441   0.000  0.00  0.00    +0.000 C 
ATOM      4  O   UNL     1       0.535   1.266   0.000  0.00  0.00    +0.000 OA
BRANCH   3   5
ATOM      5  C   UNL     1       1.250   0.028   0.000  0.00  0.00    +0.000 C 
ATOM      6  O   UNL     1       1.250  -0.797   0.000  0.00  0.00    +0.000 OA
BRANCH   5   7
ATOM      7  O   UNL     1       1.964   0.441   0.000  0.00  0.00    +0.000 OA
BRANCH   7   8
ATOM      8  C   UNL     1       2.679   0.028   0.000  0.00  0.00    +0.000 C 
ATOM      9  C   UNL     1       3.393   0.441   0.000  0.00  0.00    +0.000 C 
ATOM     10  C   UNL     1       2.679  -0.797   0.000  0.00  0.00    +0.000 C 
ENDBRANCH   7   8
ENDBRANCH   5   7
ENDBRANCH   3   5
ENDBRANCH   2   3
BRANCH   2  11
ATOM     11  C   UNL     1      -0.894   0.441   0.000  0.00  0.00    +0.000 C 
BRANCH  11  12
ATOM     12  C   UNL     1      -1.608   0.028   0.000  0.00  0.00    +0.000 C 
ATOM     13  C   UNL     1      -1.608  -0.797   0.000  0.00  0.00    +0.000 C 
ATOM     14  C   UNL     1      -2.323   0.441   0.000  0.00  0.00    +0.000 C 
ATOM     15  C   UNL     1      -2.323  -1.210   0.000  0.00  0.00    +0.000 C 
ATOM     16  C   UNL     1      -3.037   0.028   0.000  0.00  0.00    +0.000 C 
ATOM     17  C   UNL     1      -3.037  -0.797   0.000  0.00  0.00    +0.000 C 
ENDBRANCH  11  12
ENDBRANCH   2  11
TORSDOF 6
