REMARK  Name = NOX
REMARK  8 active torsions:
REMARK  status: ('A' for Active; 'I' for Inactive)
REMARK    1  A    between atoms: N_1  and  C_8
REMARK    2  A    between atoms: C_8  and  C_9
REMARK    3  A    between atoms: C_9  and  C_10
REMARK    4  A    between atoms: C_13  and  N_16
REMARK    5  A    between atoms: C_17  and  C_19
REMARK    6  A    between atoms: C_19  and  C_20
REMARK    7  A    between atoms: C_20  and  C_21
REMARK    8  A    between atoms: C_21  and  C_22
REMARK                            x       y       z     vdW  Elec       q    Type
REMARK                         _______ _______ _______ _____ _____    ______ ____
ROOT
ATOM      1  C   UNL     1      -1.138   0.310   0.000  0.00  0.00    +0.000 A 
ATOM      2  C   UNL     1      -1.138   1.135   0.000  0.00  0.00    +0.000 A 
ATOM      3  C   UNL     1      -0.424   1.548   0.000  0.00  0.00    +0.000 A 
ATOM      4  C   UNL     1       0.291   1.135   0.000  0.00  0.00    +0.000 A 
ATOM      5  C   UNL     1       0.291   0.310   0.000  0.00  0.00    +0.000 A 
ATOM      6  C   UNL     1      -0.424  -0.102   0.000  0.00  0.00    +0.000 A 
ENDROOT
BRANCH   4   7
ATOM      7  N   UNL     1       1.005   1.548   0.000  0.00  0.00    +0.000 NA
ATOM      8  C   UNL     1       1.720   1.135   0.000  0.00  0.00    +0.000 C 
ATOM      9  O   UNL     1       1.720   0.310   0.000  0.00  0.00    +0.000 OA
BRANCH   8  10
ATOM     10  C   UNL     1       2.434   1.548   0.000  0.00  0.00    +0.000 C 
BRANCH  10  11
ATOM     11  C   UNL     1       3.149   1.135   0.000  0.00  0.00    +0.000 C 
BRANCH  11  12
ATOM     12  C   UNL     1       3.863   1.548   0.000  0.00  0.00    +0.000 C 
BRANCH  12  13
ATOM     13  C   UNL     1       4.578   1.135   0.000  0.00  0.00    +0.000 C 
ATOM     14  O   UNL     1       5.292   1.548   0.000  0.00  0.00    +0.000 OA
ATOM     15  O   UNL     1       4.578   0.310   0.000  0.00  0.00    +0.000 OA
ENDBRANCH  12  13
ENDBRANCH  11  12
ENDBRANCH  10  11
ENDBRANCH   8  10
ENDBRANCH   4   7
BRANCH   1  16
ATOM     16  C   UNL     1      -1.853  -0.102   0.000  0.00  0.00    +0.000 C 
BRANCH  16  17
ATOM     17  C   UNL     1      -1.853  -0.927   0.000  0.00  0.00    +0.000 C 
BRANCH  17  18
ATOM     18  N   UNL     1      -2.567  -1.340   0.000  0.00  0.00    +0.000 N 
ATOM     19  C   UNL     1      -2.954  -2.068   0.000  0.00  0.00    +0.000 C 
ATOM     20  C   UNL     1      -3.779  -2.097   0.000  0.00  0.00    +0.000 C 
ATOM     21  C   UNL     1      -4.216  -1.397   0.000  0.00  0.00    +0.000 C 
ATOM     22  C   UNL     1      -3.829  -0.669   0.000  0.00  0.00    +0.000 C 
ATOM     23  C   UNL     1      -3.004  -0.640   0.000  0.00  0.00    +0.000 C 
ATOM     24  O   UNL     1      -1.826  -1.702   0.000  0.00  0.00    +0.000 OA
ENDBRANCH  17  18
ENDBRANCH  16  17
ENDBRANCH   1  16
TORSDOF 8
