REMARK  Name = NP2
REMARK  5 active torsions:
REMARK  status: ('A' for Active; 'I' for Inactive)
REMARK    1  A    between atoms: C_2  and  C_3
REMARK    2  A    between atoms: C_3  and  C_4
REMARK    3  A    between atoms: C_4  and  N_5
REMARK    4  A    between atoms: N_5  and  C_6
REMARK    5  A    between atoms: C_8  and  N_9
REMARK                            x       y       z     vdW  Elec       q    Type
REMARK                         _______ _______ _______ _____ _____    ______ ____
ROOT
ATOM      1  C   UNL     1       1.183  -0.158   0.000  0.00  0.00    +0.000 A 
ATOM      2  C   UNL     1       1.183   0.667   0.000  0.00  0.00    +0.000 A 
ATOM      3  C   UNL     1       1.897  -0.570   0.000  0.00  0.00    +0.000 A 
ATOM      4  C   UNL     1       1.897   1.080   0.000  0.00  0.00    +0.000 A 
ATOM      5  C   UNL     1       2.612  -0.158   0.000  0.00  0.00    +0.000 A 
ATOM      6  C   UNL     1       2.612   0.667   0.000  0.00  0.00    +0.000 A 
ENDROOT
BRANCH   3   7
ATOM      7  N   UNL     1       1.897  -1.395   0.000  0.00  0.00    +0.000 N 
ATOM      8  O   UNL     1       2.612  -1.808   0.000  0.00  0.00    +0.000 OA
ATOM      9  O   UNL     1       1.183  -1.808   0.000  0.00  0.00    +0.000 OA
ENDBRANCH   3   7
BRANCH   1  10
ATOM     10  N   UNL     1       0.469  -0.570   0.000  0.00  0.00    +0.000 NA
BRANCH  10  11
ATOM     11  C   UNL     1      -0.246  -0.158   0.000  0.00  0.00    +0.000 C 
BRANCH  11  12
ATOM     12  C   UNL     1      -0.961  -0.570   0.000  0.00  0.00    +0.000 C 
BRANCH  12  14
ATOM     13  N   UNL     1      -2.390  -0.570   0.000  0.00  0.00    +0.000 NA
ATOM     14  C   UNL     1      -1.675  -0.158   0.000  0.00  0.00    +0.000 C 
ENDBRANCH  12  14
ENDBRANCH  11  12
ENDBRANCH  10  11
ENDBRANCH   1  10
TORSDOF 5
