REMARK  Name = NP4
REMARK  0 active torsions:
REMARK  status: ('A' for Active; 'I' for Inactive)
REMARK                            x       y       z     vdW  Elec       q    Type
REMARK                         _______ _______ _______ _____ _____    ______ ____
ROOT
ATOM      1  C   UNL     1      -0.925  -0.762   0.000  0.00  0.00    +0.000 C 
ATOM      2  C   UNL     1      -1.709  -0.507   0.000  0.00  0.00    +0.000 A 
ATOM      3  O   UNL     1      -0.440  -1.524   0.000  0.00  0.00    +0.000 OA
ATOM      4  C   UNL     1      -2.424  -0.920   0.000  0.00  0.00    +0.000 A 
ATOM      5  C   UNL     1      -3.138  -0.507   0.000  0.00  0.00    +0.000 A 
ATOM      6  C   UNL     1      -3.138   0.318   0.000  0.00  0.00    +0.000 A 
ATOM      7  C   UNL     1      -2.424   0.730   0.000  0.00  0.00    +0.000 A 
ATOM      8  C   UNL     1      -1.709   0.318   0.000  0.00  0.00    +0.000 A 
ATOM      9  C   UNL     1      -0.925   0.573   0.000  0.00  0.00    +0.000 C 
ATOM     10  C   UNL     1      -0.440   1.334   0.000  0.00  0.00    +0.000 C 
ATOM     11  C   UNL     1       0.385   1.334   0.000  0.00  0.00    +0.000 C 
ATOM     12  C   UNL     1       0.798   0.620   0.000  0.00  0.00    +0.000 C 
ATOM     13  C   UNL     1       1.623   0.620   0.000  0.00  0.00    +0.000 C 
ATOM     14  C   UNL     1       2.035  -0.095   0.000  0.00  0.00    +0.000 C 
ATOM     15  C   UNL     1       1.623  -0.809   0.000  0.00  0.00    +0.000 C 
ATOM     16  C   UNL     1       0.798  -0.809   0.000  0.00  0.00    +0.000 C 
ATOM     17  C   UNL     1       0.385  -1.524   0.000  0.00  0.00    +0.000 C 
ATOM     18  O   UNL     1      -0.420  -0.110   0.000  0.00  0.00    +0.000 OA
ATOM     19  O   UNL     1      -2.424  -1.745   0.000  0.00  0.00    +0.000 OA
ATOM     20  O   UNL     1      -3.853   0.730   0.000  0.00  0.00    +0.000 OA
ATOM     21 CL   UNL     1      -2.424   1.555   0.000  0.00  0.00    +0.000 Cl
ATOM     22  O   UNL     1      -0.837   2.057   0.000  0.00  0.00    +0.000 OA
ENDROOT
TORSDOF 0
