REMARK  Name = NP5
REMARK  0 active torsions:
REMARK  status: ('A' for Active; 'I' for Inactive)
REMARK                            x       y       z     vdW  Elec       q    Type
REMARK                         _______ _______ _______ _____ _____    ______ ____
ROOT
ATOM      1  C   UNL     1      -1.101   1.121   0.000  0.00  0.00    +0.000 C 
ATOM      2  O   UNL     1      -0.312   0.879   0.000  0.00  0.00    +0.000 OA
ATOM      3  C   UNL     1      -1.704   0.559   0.000  0.00  0.00    +0.000 A 
ATOM      4  C   UNL     1      -2.493   0.800   0.000  0.00  0.00    +0.000 A 
ATOM      5  C   UNL     1      -3.097   0.238   0.000  0.00  0.00    +0.000 A 
ATOM      6  C   UNL     1      -2.912  -0.566   0.000  0.00  0.00    +0.000 A 
ATOM      7  C   UNL     1      -2.123  -0.808   0.000  0.00  0.00    +0.000 A 
ATOM      8  C   UNL     1      -1.519  -0.245   0.000  0.00  0.00    +0.000 A 
ATOM      9  C   UNL     1      -0.730  -0.487   0.000  0.00  0.00    +0.000 C 
ATOM     10  C   UNL     1      -0.545  -1.291   0.000  0.00  0.00    +0.000 C 
ATOM     11  C   UNL     1       0.244  -1.532   0.000  0.00  0.00    +0.000 C 
ATOM     12  C   UNL     1       0.930  -0.946   0.000  0.00  0.00    +0.000 C 
ATOM     13  C   UNL     1       1.755  -0.932   0.000  0.00  0.00    +0.000 C 
ATOM     14  C   UNL     1       1.997  -0.144   0.000  0.00  0.00    +0.000 C 
ATOM     15  C   UNL     1       1.321   0.330   0.000  0.00  0.00    +0.000 C 
ATOM     16  C   UNL     1       1.081   1.200   0.000  0.00  0.00    +0.000 C 
ATOM     17  C   UNL     1       0.292   1.442   0.000  0.00  0.00    +0.000 C 
ATOM     18  O   UNL     1      -1.286   1.925   0.000  0.00  0.00    +0.000 OA
ATOM     19  O   UNL     1      -2.678   1.604   0.000  0.00  0.00    +0.000 OA
ATOM     20  O   UNL     1      -3.515  -1.128   0.000  0.00  0.00    +0.000 OA
ATOM     21 CL   UNL     1      -1.938  -1.611   0.000  0.00  0.00    +0.000 Cl
ATOM     22  O   UNL     1      -1.149  -1.853   0.000  0.00  0.00    +0.000 OA
ENDROOT
TORSDOF 0
