REMARK  Name = NP6
REMARK  7 active torsions:
REMARK  status: ('A' for Active; 'I' for Inactive)
REMARK    1  A    between atoms: C_2  and  C_3
REMARK    2  A    between atoms: C_3  and  C_4
REMARK    3  A    between atoms: N_6  and  C_7
REMARK    4  A    between atoms: C_12  and  C_13
REMARK    5  A    between atoms: N_17  and  O_18
REMARK    6  A    between atoms: O_18  and  C_19
REMARK    7  A    between atoms: N_21  and  C_22
REMARK                            x       y       z     vdW  Elec       q    Type
REMARK                         _______ _______ _______ _____ _____    ______ ____
ROOT
ATOM      1  C   UNL     1      -0.662   0.585   0.000  0.00  0.00    +0.000 C 
ATOM      2  C   UNL     1      -0.662   1.409   0.000  0.00  0.00    +0.000 C 
ATOM      3  O   UNL     1      -1.376   1.822   0.000  0.00  0.00    +0.000 OA
ATOM      4  C   UNL     1       0.053   1.822   0.000  0.00  0.00    +0.000 C 
ATOM      5  O   UNL     1       0.053   2.647   0.000  0.00  0.00    +0.000 OA
ATOM      6  C   UNL     1       0.767   1.409   0.000  0.00  0.00    +0.000 C 
ATOM      7  O   UNL     1       0.767   0.585   0.000  0.00  0.00    +0.000 OA
ATOM      8  C   UNL     1       0.053   0.172   0.000  0.00  0.00    +0.000 C 
ATOM      9  N   UNL     1       0.053  -0.653   0.000  0.00  0.00    +0.000 NA
ENDROOT
BRANCH   1  12
ATOM     10  C   UNL     1      -2.091   0.585   0.000  0.00  0.00    +0.000 C 
ATOM     11  O   UNL     1      -2.091   1.409   0.000  0.00  0.00    +0.000 OA
ATOM     12  N   UNL     1      -1.376   0.172   0.000  0.00  0.00    +0.000 NA
BRANCH  10  13
ATOM     13  C   UNL     1      -2.805   0.172   0.000  0.00  0.00    +0.000 C 
BRANCH  13  15
ATOM     14  C   UNL     1      -4.234   0.172   0.000  0.00  0.00    +0.000 C 
ATOM     15  C   UNL     1      -3.520   0.585   0.000  0.00  0.00    +0.000 C 
ENDBRANCH  13  15
ENDBRANCH  10  13
ENDBRANCH   1  12
BRANCH   6  16
ATOM     16  C   UNL     1       1.482   1.822   0.000  0.00  0.00    +0.000 C 
ATOM     17  O   UNL     1       2.196   1.409   0.000  0.00  0.00    +0.000 OA
ENDBRANCH   6  16
BRANCH   9  18
ATOM     18  O   UNL     1       0.767  -1.065   0.000  0.00  0.00    +0.000 OA
BRANCH  18  19
ATOM     19  C   UNL     1       0.767  -1.891   0.000  0.00  0.00    +0.000 C 
ATOM     20  O   UNL     1       0.053  -2.303   0.000  0.00  0.00    +0.000 OA
ATOM     21  N   UNL     1       1.482  -2.303   0.000  0.00  0.00    +0.000 NA
BRANCH  21  22
ATOM     22  C   UNL     1       2.196  -1.891   0.000  0.00  0.00    +0.000 A 
ATOM     23  C   UNL     1       2.196  -1.065   0.000  0.00  0.00    +0.000 A 
ATOM     24  C   UNL     1       2.910  -0.653   0.000  0.00  0.00    +0.000 A 
ATOM     25  C   UNL     1       3.625  -1.065   0.000  0.00  0.00    +0.000 A 
ATOM     26  C   UNL     1       3.625  -1.891   0.000  0.00  0.00    +0.000 A 
ATOM     27  C   UNL     1       2.910  -2.303   0.000  0.00  0.00    +0.000 A 
ENDBRANCH  21  22
ENDBRANCH  18  19
ENDBRANCH   9  18
TORSDOF 7
