REMARK  Name = NPA
REMARK  3 active torsions:
REMARK  status: ('A' for Active; 'I' for Inactive)
REMARK    1  A    between atoms: C_1  and  C_7
REMARK    2  A    between atoms: C_3  and  N_9
REMARK    3  A    between atoms: C_7  and  C_8
REMARK                            x       y       z     vdW  Elec       q    Type
REMARK                         _______ _______ _______ _____ _____    ______ ____
ROOT
ATOM      1  C   UNL     1       0.388   0.408   0.000  0.00  0.00    +0.000 A 
ATOM      2  C   UNL     1       0.388  -0.417   0.000  0.00  0.00    +0.000 A 
ATOM      3  C   UNL     1      -0.327  -0.829   0.000  0.00  0.00    +0.000 A 
ATOM      4  C   UNL     1      -1.041  -0.417   0.000  0.00  0.00    +0.000 A 
ATOM      5  C   UNL     1      -1.041   0.408   0.000  0.00  0.00    +0.000 A 
ATOM      6  C   UNL     1      -0.327   0.821   0.000  0.00  0.00    +0.000 A 
ATOM      7  O   UNL     1      -1.755  -0.829   0.000  0.00  0.00    +0.000 OA
ENDROOT
BRANCH   3   8
ATOM      8  N   UNL     1      -0.327  -1.654   0.000  0.00  0.00    +0.000 N 
ATOM      9  O   UNL     1      -1.041  -2.067   0.000  0.00  0.00    +0.000 OA
ATOM     10  O   UNL     1       0.388  -2.067   0.000  0.00  0.00    +0.000 OA
ENDBRANCH   3   8
BRANCH   1  11
ATOM     11  C   UNL     1       1.103   0.821   0.000  0.00  0.00    +0.000 C 
BRANCH  11  12
ATOM     12  C   UNL     1       1.817   0.408   0.000  0.00  0.00    +0.000 C 
ATOM     13  O   UNL     1       2.531   0.821   0.000  0.00  0.00    +0.000 OA
ATOM     14  O   UNL     1       1.817  -0.417   0.000  0.00  0.00    +0.000 OA
ENDBRANCH  11  12
ENDBRANCH   1  11
TORSDOF 3
