REMARK  Name = NPC
REMARK  9 active torsions:
REMARK  status: ('A' for Active; 'I' for Inactive)
REMARK    1  A    between atoms: C_1  and  C_11
REMARK    2  A    between atoms: C_3  and  N_4
REMARK    3  A    between atoms: C_11  and  C_12
REMARK    4  A    between atoms: N_14  and  C_15
REMARK    5  A    between atoms: C_15  and  C_16
REMARK    6  A    between atoms: C_16  and  C_17
REMARK    7  A    between atoms: C_17  and  C_18
REMARK    8  A    between atoms: C_18  and  C_19
REMARK    9  A    between atoms: C_19  and  C_20
REMARK                            x       y       z     vdW  Elec       q    Type
REMARK                         _______ _______ _______ _____ _____    ______ ____
ROOT
ATOM      1  C   UNL     1      -1.593  -0.290   0.000  0.00  0.00    +0.000 C 
ENDROOT
BRANCH   1   2
ATOM      2  C   UNL     1      -2.308   0.123   0.000  0.00  0.00    +0.000 A 
ATOM      3  C   UNL     1      -3.022  -0.290   0.000  0.00  0.00    +0.000 A 
ATOM      4  C   UNL     1      -3.737   0.123   0.000  0.00  0.00    +0.000 A 
ATOM      5  C   UNL     1      -3.737   0.948   0.000  0.00  0.00    +0.000 A 
ATOM      6  O   UNL     1      -4.451   1.360   0.000  0.00  0.00    +0.000 OA
ATOM      7  C   UNL     1      -3.022   1.360   0.000  0.00  0.00    +0.000 A 
ATOM      8  C   UNL     1      -2.308   0.948   0.000  0.00  0.00    +0.000 A 
BRANCH   4   9
ATOM      9  N   UNL     1      -4.451  -0.290   0.000  0.00  0.00    +0.000 N 
ATOM     10  O   UNL     1      -5.166   0.123   0.000  0.00  0.00    +0.000 OA
ATOM     11  O   UNL     1      -4.451  -1.115   0.000  0.00  0.00    +0.000 OA
ENDBRANCH   4   9
ENDBRANCH   1   2
BRANCH   1  12
ATOM     12  C   UNL     1      -0.879   0.123   0.000  0.00  0.00    +0.000 C 
ATOM     13  O   UNL     1      -0.879   0.948   0.000  0.00  0.00    +0.000 OA
ATOM     14  N   UNL     1      -0.165  -0.290   0.000  0.00  0.00    +0.000 NA
BRANCH  14  15
ATOM     15  C   UNL     1       0.550   0.123   0.000  0.00  0.00    +0.000 C 
BRANCH  15  16
ATOM     16  C   UNL     1       1.264  -0.290   0.000  0.00  0.00    +0.000 C 
BRANCH  16  17
ATOM     17  C   UNL     1       1.979   0.123   0.000  0.00  0.00    +0.000 C 
BRANCH  17  18
ATOM     18  C   UNL     1       2.693  -0.290   0.000  0.00  0.00    +0.000 C 
BRANCH  18  19
ATOM     19  C   UNL     1       3.408   0.123   0.000  0.00  0.00    +0.000 C 
BRANCH  19  20
ATOM     20  C   UNL     1       4.122  -0.290   0.000  0.00  0.00    +0.000 C 
ATOM     21  O   UNL     1       4.837   0.123   0.000  0.00  0.00    +0.000 OA
ATOM     22  O   UNL     1       4.122  -1.115   0.000  0.00  0.00    +0.000 OA
ENDBRANCH  19  20
ENDBRANCH  18  19
ENDBRANCH  17  18
ENDBRANCH  16  17
ENDBRANCH  15  16
ENDBRANCH  14  15
ENDBRANCH   1  12
TORSDOF 9
