REMARK  Name = NPE
REMARK  8 active torsions:
REMARK  status: ('A' for Active; 'I' for Inactive)
REMARK    1  A    between atoms: C_1  and  N_2
REMARK    2  A    between atoms: C_7  and  O_10
REMARK    3  A    between atoms: O_10  and  P_11
REMARK    4  A    between atoms: P_11  and  C_14
REMARK    5  A    between atoms: C_14  and  C_15
REMARK    6  A    between atoms: C_15  and  C_16
REMARK    7  A    between atoms: C_16  and  C_17
REMARK    8  A    between atoms: C_17  and  C_18
REMARK                            x       y       z     vdW  Elec       q    Type
REMARK                         _______ _______ _______ _____ _____    ______ ____
ROOT
ATOM      1  O   UNL     1      -0.551   0.665   0.000  0.00  0.00    +0.000 OA
ENDROOT
BRANCH   1   5
ATOM      2  C   UNL     1      -2.422  -0.955   0.000  0.00  0.00    +0.000 A 
ATOM      3  C   UNL     1      -2.578  -0.145   0.000  0.00  0.00    +0.000 A 
ATOM      4  C   UNL     1      -1.954   0.395   0.000  0.00  0.00    +0.000 A 
ATOM      5  C   UNL     1      -1.174   0.125   0.000  0.00  0.00    +0.000 A 
ATOM      6  C   UNL     1      -1.018  -0.685   0.000  0.00  0.00    +0.000 A 
ATOM      7  C   UNL     1      -1.642  -1.225   0.000  0.00  0.00    +0.000 A 
BRANCH   2   8
ATOM      8  N   UNL     1      -3.045  -1.495   0.000  0.00  0.00    +0.000 N 
ATOM      9  O   UNL     1      -2.889  -2.305   0.000  0.00  0.00    +0.000 OA
ATOM     10  O   UNL     1      -3.825  -1.225   0.000  0.00  0.00    +0.000 OA
ENDBRANCH   2   8
ENDBRANCH   1   5
BRANCH   1  11
ATOM     11  P   UNL     1       0.229   0.395   0.000  0.00  0.00    +0.000 P 
ATOM     12  O   UNL     1      -0.041  -0.384   0.000  0.00  0.00    +0.000 OA
ATOM     13  O   UNL     1       0.499   1.175   0.000  0.00  0.00    +0.000 OA
BRANCH  11  14
ATOM     14  C   UNL     1       1.008   0.125   0.000  0.00  0.00    +0.000 C 
BRANCH  14  15
ATOM     15  C   UNL     1       1.632   0.665   0.000  0.00  0.00    +0.000 C 
BRANCH  15  16
ATOM     16  C   UNL     1       2.412   0.395   0.000  0.00  0.00    +0.000 C 
BRANCH  16  17
ATOM     17  C   UNL     1       3.035   0.935   0.000  0.00  0.00    +0.000 C 
BRANCH  17  18
ATOM     18  C   UNL     1       3.815   0.665   0.000  0.00  0.00    +0.000 C 
ATOM     19  O   UNL     1       4.438   1.205   0.000  0.00  0.00    +0.000 OA
ATOM     20  O   UNL     1       3.971  -0.145   0.000  0.00  0.00    +0.000 OA
ENDBRANCH  17  18
ENDBRANCH  16  17
ENDBRANCH  15  16
ENDBRANCH  14  15
ENDBRANCH  11  14
ENDBRANCH   1  11
TORSDOF 8
