REMARK  Name = NPF
REMARK  3 active torsions:
REMARK  status: ('A' for Active; 'I' for Inactive)
REMARK    1  A    between atoms: C_1  and  O_10
REMARK    2  A    between atoms: C_6  and  N_7
REMARK    3  A    between atoms: O_10  and  C_11
REMARK                            x       y       z     vdW  Elec       q    Type
REMARK                         _______ _______ _______ _____ _____    ______ ____
ROOT
ATOM      1  O   UNL     1      -1.150   0.192   0.000  0.00  0.00    +0.000 OA
ENDROOT
BRANCH   1   2
ATOM      2  C   UNL     1      -0.436   0.604   0.000  0.00  0.00    +0.000 C 
ATOM      3  C   UNL     1      -0.436   1.429   0.000  0.00  0.00    +0.000 C 
ATOM      4  O   UNL     1      -1.150   1.841   0.000  0.00  0.00    +0.000 OA
ATOM      5  C   UNL     1       0.279   1.841   0.000  0.00  0.00    +0.000 C 
ATOM      6  O   UNL     1       0.279   2.667   0.000  0.00  0.00    +0.000 OA
ATOM      7  C   UNL     1       0.993   1.429   0.000  0.00  0.00    +0.000 C 
ATOM      8  O   UNL     1       1.708   1.841   0.000  0.00  0.00    +0.000 OA
ATOM      9  C   UNL     1       0.993   0.604   0.000  0.00  0.00    +0.000 C 
ATOM     10  C   UNL     1       1.708   0.192   0.000  0.00  0.00    +0.000 C 
ATOM     11  O   UNL     1       0.279   0.192   0.000  0.00  0.00    +0.000 OA
ENDBRANCH   1   2
BRANCH   1  12
ATOM     12  C   UNL     1      -1.150  -0.633   0.000  0.00  0.00    +0.000 A 
ATOM     13  C   UNL     1      -0.436  -1.046   0.000  0.00  0.00    +0.000 A 
ATOM     14  C   UNL     1      -0.436  -1.871   0.000  0.00  0.00    +0.000 A 
ATOM     15  C   UNL     1      -1.150  -2.284   0.000  0.00  0.00    +0.000 A 
ATOM     16  C   UNL     1      -1.865  -1.871   0.000  0.00  0.00    +0.000 A 
ATOM     17  C   UNL     1      -1.865  -1.046   0.000  0.00  0.00    +0.000 A 
BRANCH  17  18
ATOM     18  N   UNL     1      -2.579  -0.633   0.000  0.00  0.00    +0.000 N 
ATOM     19  O   UNL     1      -3.294  -1.046   0.000  0.00  0.00    +0.000 OA
ATOM     20  O   UNL     1      -2.579   0.192   0.000  0.00  0.00    +0.000 OA
ENDBRANCH  17  18
ENDBRANCH   1  12
TORSDOF 3
