REMARK  Name = NPG
REMARK  6 active torsions:
REMARK  status: ('A' for Active; 'I' for Inactive)
REMARK    1  A    between atoms: C_3  and  C_4
REMARK    2  A    between atoms: C_4  and  C_5
REMARK    3  A    between atoms: C_5  and  C_7
REMARK    4  A    between atoms: N_8  and  CA_12
REMARK    5  A    between atoms: C_11  and  CA_12
REMARK    6  A    between atoms: CA_12  and  C_13
REMARK                            x       y       z     vdW  Elec       q    Type
REMARK                         _______ _______ _______ _____ _____    ______ ____
ROOT
ATOM      1  CA  UNL     1       0.743   0.129   0.000  0.00  0.00    +0.000 C 
ENDROOT
BRANCH   1   2
ATOM      2  C   UNL     1       1.283  -0.495   0.000  0.00  0.00    +0.000 A 
ATOM      3  C   UNL     1       2.093  -0.339   0.000  0.00  0.00    +0.000 A 
ATOM      4  C   UNL     1       1.013  -1.275   0.000  0.00  0.00    +0.000 A 
ATOM      5  C   UNL     1       2.633  -0.963   0.000  0.00  0.00    +0.000 A 
ATOM      6  C   UNL     1       1.553  -1.898   0.000  0.00  0.00    +0.000 A 
ATOM      7  C   UNL     1       2.363  -1.742   0.000  0.00  0.00    +0.000 A 
ENDBRANCH   1   2
BRANCH   1  10
ATOM      8  O   UNL     1       0.473   1.532   0.000  0.00  0.00    +0.000 OA
ATOM      9  OXT UNL     1       1.823   1.064   0.000  0.00  0.00    +0.000 OA
ATOM     10  C   UNL     1       1.013   0.908   0.000  0.00  0.00    +0.000 C 
ENDBRANCH   1  10
BRANCH   1  13
ATOM     11  O   UNL     1      -0.337   1.376   0.000  0.00  0.00    +0.000 OA
ATOM     12  C   UNL     1      -0.607   0.596   0.000  0.00  0.00    +0.000 C 
ATOM     13  N   UNL     1      -0.067  -0.027   0.000  0.00  0.00    +0.000 NA
BRANCH  12  14
ATOM     14  C   UNL     1      -1.417   0.440   0.000  0.00  0.00    +0.000 C 
BRANCH  14  15
ATOM     15  C   UNL     1      -1.958   1.064   0.000  0.00  0.00    +0.000 C 
BRANCH  15  18
ATOM     16  O   UNL     1      -3.308   1.532   0.000  0.00  0.00    +0.000 OA
ATOM     17  O   UNL     1      -3.038   0.129   0.000  0.00  0.00    +0.000 OA
ATOM     18  C   UNL     1      -2.768   0.908   0.000  0.00  0.00    +0.000 C 
ENDBRANCH  15  18
ENDBRANCH  14  15
ENDBRANCH  12  14
ENDBRANCH   1  13
TORSDOF 6
