REMARK  Name = NPV
REMARK  4 active torsions:
REMARK  status: ('A' for Active; 'I' for Inactive)
REMARK    1  A    between atoms: C_1  and  C_11
REMARK    2  A    between atoms: C_4  and  C_6
REMARK    3  A    between atoms: C_19  and  C_20
REMARK    4  A    between atoms: C_25  and  N_26
REMARK                            x       y       z     vdW  Elec       q    Type
REMARK                         _______ _______ _______ _____ _____    ______ ____
ROOT
ATOM      1  C   UNL     1      -0.232  -0.509   0.000  0.00  0.00    +0.000 A 
ATOM      2  C   UNL     1       2.626   0.316   0.000  0.00  0.00    +0.000 A 
ATOM      3  C   UNL     1       0.483  -0.922   0.000  0.00  0.00    +0.000 A 
ATOM      4  C   UNL     1       1.197  -0.509   0.000  0.00  0.00    +0.000 A 
ATOM      5  C   UNL     1       1.912  -0.922   0.000  0.00  0.00    +0.000 A 
ATOM      6  N   UNL     1      -0.232   0.316   0.000  0.00  0.00    +0.000 NA
ATOM      7  C   UNL     1       2.626  -0.509   0.000  0.00  0.00    +0.000 A 
ATOM      8  N   UNL     1       1.912   0.728   0.000  0.00  0.00    +0.000 NA
ATOM      9  C   UNL     1       1.197   0.316   0.000  0.00  0.00    +0.000 A 
ATOM     10  C   UNL     1       0.483   0.728   0.000  0.00  0.00    +0.000 A 
ENDROOT
BRANCH   1  14
ATOM     11  C   UNL     1      -2.375  -1.747   0.000  0.00  0.00    +0.000 A 
ATOM     12  C   UNL     1      -2.375  -0.922   0.000  0.00  0.00    +0.000 A 
ATOM     13  C   UNL     1      -1.661  -0.509   0.000  0.00  0.00    +0.000 A 
ATOM     14  C   UNL     1      -0.946  -0.922   0.000  0.00  0.00    +0.000 A 
ATOM     15  C   UNL     1      -1.661  -2.159   0.000  0.00  0.00    +0.000 A 
ATOM     16  C   UNL     1      -0.946  -1.747   0.000  0.00  0.00    +0.000 A 
BRANCH  11  17
ATOM     17  C   UNL     1      -3.090  -2.159   0.000  0.00  0.00    +0.000 C 
ATOM     18  O   UNL     1      -3.090  -2.984   0.000  0.00  0.00    +0.000 OA
ATOM     19  O   UNL     1      -3.804  -1.747   0.000  0.00  0.00    +0.000 OA
ENDBRANCH  11  17
ENDBRANCH   1  14
BRANCH  10  20
ATOM     20  C   UNL     1       0.483   1.553   0.000  0.00  0.00    +0.000 A 
ATOM     21  C   UNL     1       1.197   1.966   0.000  0.00  0.00    +0.000 A 
ATOM     22  C   UNL     1      -0.232   1.966   0.000  0.00  0.00    +0.000 A 
ATOM     23  C   UNL     1      -0.232   2.791   0.000  0.00  0.00    +0.000 A 
ATOM     24  C   UNL     1       0.483   3.203   0.000  0.00  0.00    +0.000 A 
ATOM     25  C   UNL     1       1.197   2.791   0.000  0.00  0.00    +0.000 A 
BRANCH  25  26
ATOM     26  N   UNL     1       1.912   3.203   0.000  0.00  0.00    +0.000 N 
ATOM     27  O   UNL     1       1.912   4.028   0.000  0.00  0.00    +0.000 OA
ATOM     28  O   UNL     1       2.626   2.791   0.000  0.00  0.00    +0.000 OA
ENDBRANCH  25  26
ENDBRANCH  10  20
TORSDOF 4
