REMARK  Name = NPZ
REMARK  1 active torsions:
REMARK  status: ('A' for Active; 'I' for Inactive)
REMARK    1  A    between atoms: C_11  and  C_12
REMARK                            x       y       z     vdW  Elec       q    Type
REMARK                         _______ _______ _______ _____ _____    ______ ____
ROOT
ATOM      1  C   UNL     1      -0.271   1.337   0.000  0.00  0.00    +0.000 A 
ATOM      2  N   UNL     1       0.536   1.166   0.000  0.00  0.00    +0.000 NA
ATOM      3  C   UNL     1      -0.823   0.724   0.000  0.00  0.00    +0.000 A 
ATOM      4  N   UNL     1      -0.526   2.122   0.000  0.00  0.00    +0.000 NA
ATOM      5  C   UNL     1      -1.333   2.294   0.000  0.00  0.00    +0.000 A 
ATOM      6  N   UNL     1      -1.885   1.681   0.000  0.00  0.00    +0.000 NA
ATOM      7  C   UNL     1      -1.630   0.896   0.000  0.00  0.00    +0.000 A 
ATOM      8  N   UNL     1      -2.042   0.181   0.000  0.00  0.00    +0.000 N 
ATOM      9  C   UNL     1      -2.863   0.095   0.000  0.00  0.00    +0.000 C 
ATOM     10  N   UNL     1      -1.490  -0.432   0.000  0.00  0.00    +0.000 NA
ATOM     11  C   UNL     1      -0.737  -0.096   0.000  0.00  0.00    +0.000 A 
ENDROOT
BRANCH  11  12
ATOM     12  C   UNL     1      -0.022  -0.509   0.000  0.00  0.00    +0.000 A 
ATOM     13  C   UNL     1       0.692  -0.096   0.000  0.00  0.00    +0.000 A 
ATOM     14  C   UNL     1      -0.022  -1.334   0.000  0.00  0.00    +0.000 A 
ATOM     15  C   UNL     1       0.692  -1.746   0.000  0.00  0.00    +0.000 A 
ATOM     16  C   UNL     1       1.407  -1.334   0.000  0.00  0.00    +0.000 A 
ATOM     17  C   UNL     1       1.407  -0.509   0.000  0.00  0.00    +0.000 A 
ATOM     18  C   UNL     1       2.121  -1.746   0.000  0.00  0.00    +0.000 A 
ATOM     19  C   UNL     1       2.836  -1.334   0.000  0.00  0.00    +0.000 A 
ATOM     20  C   UNL     1       2.836  -0.509   0.000  0.00  0.00    +0.000 A 
ATOM     21  C   UNL     1       2.121  -0.096   0.000  0.00  0.00    +0.000 A 
ENDBRANCH  11  12
TORSDOF 1
