REMARK  Name = NR2
REMARK  4 active torsions:
REMARK  status: ('A' for Active; 'I' for Inactive)
REMARK    1  A    between atoms: S_1  and  C_5
REMARK    2  A    between atoms: C_8  and  N_9
REMARK    3  A    between atoms: N_12  and  S_13
REMARK    4  A    between atoms: S_13  and  C_16
REMARK                            x       y       z     vdW  Elec       q    Type
REMARK                         _______ _______ _______ _____ _____    ______ ____
ROOT
ATOM      1  N   UNL     1      -0.657   1.263   0.000  0.00  0.00    +0.000 NA
ATOM      2  C   UNL     1       0.058   0.850   0.000  0.00  0.00    +0.000 C 
ATOM      3  O   UNL     1       0.058   0.025   0.000  0.00  0.00    +0.000 OA
ATOM      4  N   UNL     1       0.772   1.263   0.000  0.00  0.00    +0.000 NA
ENDROOT
BRANCH   1   8
ATOM      5  C   UNL     1      -2.800   0.025   0.000  0.00  0.00    +0.000 A 
ATOM      6  C   UNL     1      -2.800   0.850   0.000  0.00  0.00    +0.000 A 
ATOM      7  C   UNL     1      -2.086   1.263   0.000  0.00  0.00    +0.000 A 
ATOM      8  C   UNL     1      -1.371   0.850   0.000  0.00  0.00    +0.000 A 
ATOM      9  C   UNL     1      -1.371   0.025   0.000  0.00  0.00    +0.000 A 
ATOM     10  C   UNL     1      -2.086  -0.387   0.000  0.00  0.00    +0.000 A 
BRANCH   5  11
ATOM     11  S   UNL     1      -3.515  -0.387   0.000  0.00  0.00    +0.000 S 
ATOM     12  N   UNL     1      -4.229  -0.800   0.000  0.00  0.00    +0.000 NA
ATOM     13  O   UNL     1      -3.102  -1.102   0.000  0.00  0.00    +0.000 OA
ATOM     14  O   UNL     1      -3.927   0.327   0.000  0.00  0.00    +0.000 OA
ENDBRANCH   5  11
ENDBRANCH   1   8
BRANCH   4  15
ATOM     15  S   UNL     1       1.486   0.850   0.000  0.00  0.00    +0.000 S 
ATOM     16  O   UNL     1       1.074   0.136   0.000  0.00  0.00    +0.000 OA
ATOM     17  O   UNL     1       1.899   1.565   0.000  0.00  0.00    +0.000 OA
BRANCH  15  18
ATOM     18  C   UNL     1       2.201   0.438   0.000  0.00  0.00    +0.000 A 
ATOM     19  C   UNL     1       2.915   0.850   0.000  0.00  0.00    +0.000 A 
ATOM     20  C   UNL     1       3.630   0.438   0.000  0.00  0.00    +0.000 A 
ATOM     21  C   UNL     1       3.630  -0.387   0.000  0.00  0.00    +0.000 A 
ATOM     22  C   UNL     1       4.344  -0.800   0.000  0.00  0.00    +0.000 C 
ATOM     23  C   UNL     1       2.915  -0.800   0.000  0.00  0.00    +0.000 A 
ATOM     24  C   UNL     1       2.201  -0.387   0.000  0.00  0.00    +0.000 A 
ENDBRANCH  15  18
ENDBRANCH   4  15
TORSDOF 4
