REMARK  Name = NRO
REMARK  6 active torsions:
REMARK  status: ('A' for Active; 'I' for Inactive)
REMARK    1  A    between atoms: C_2  and  C_3
REMARK    2  A    between atoms: C_3  and  C_4
REMARK    3  A    between atoms: C_4  and  N_14
REMARK    4  A    between atoms: C_5  and  C_6
REMARK    5  A    between atoms: C_7  and  C_8
REMARK    6  A    between atoms: C_12  and  C_13
REMARK                            x       y       z     vdW  Elec       q    Type
REMARK                         _______ _______ _______ _____ _____    ______ ____
ROOT
ATOM      1  C   UNL     1       0.157   0.212   0.000  0.00  0.00    +0.000 A 
ATOM      2  C   UNL     1       0.570  -1.058   0.000  0.00  0.00    +0.000 A 
ATOM      3  O   UNL     1       0.825  -0.273   0.000  0.00  0.00    +0.000 OA
ATOM      4  C   UNL     1      -0.510  -0.273   0.000  0.00  0.00    +0.000 A 
ATOM      5  C   UNL     1      -0.255  -1.058   0.000  0.00  0.00    +0.000 A 
ENDROOT
BRANCH   2   6
ATOM      6  C   UNL     1       1.055  -1.725   0.000  0.00  0.00    +0.000 A 
ATOM      7  C   UNL     1       1.875  -1.639   0.000  0.00  0.00    +0.000 A 
ATOM      8  C   UNL     1       0.719  -2.479   0.000  0.00  0.00    +0.000 A 
ATOM      9  C   UNL     1       2.025  -3.060   0.000  0.00  0.00    +0.000 A 
ATOM     10  C   UNL     1       2.360  -2.306   0.000  0.00  0.00    +0.000 A 
ATOM     11  C   UNL     1       1.204  -3.146   0.000  0.00  0.00    +0.000 A 
BRANCH  10  12
ATOM     12  C   UNL     1       3.181  -2.220   0.000  0.00  0.00    +0.000 C 
ATOM     13  O   UNL     1       3.516  -1.466   0.000  0.00  0.00    +0.000 OA
ATOM     14  O   UNL     1       3.666  -2.888   0.000  0.00  0.00    +0.000 OA
ENDBRANCH  10  12
ENDBRANCH   2   6
BRANCH   1  16
ATOM     15  C   UNL     1      -0.557   1.449   0.000  0.00  0.00    +0.000 C 
ATOM     16  C   UNL     1       0.157   1.037   0.000  0.00  0.00    +0.000 C 
BRANCH  15  17
ATOM     17  N   UNL     1      -1.272   1.037   0.000  0.00  0.00    +0.000 N 
ATOM     18  O   UNL     1      -1.272   0.212   0.000  0.00  0.00    +0.000 OA
ATOM     19  O   UNL     1      -1.986   1.449   0.000  0.00  0.00    +0.000 OA
ENDBRANCH  15  17
BRANCH  15  20
ATOM     20  C   UNL     1      -0.557   2.274   0.000  0.00  0.00    +0.000 C 
BRANCH  20  22
ATOM     21  C   UNL     1      -1.272   3.512   0.000  0.00  0.00    +0.000 C 
ATOM     22  C   UNL     1      -1.272   2.687   0.000  0.00  0.00    +0.000 C 
ENDBRANCH  20  22
ENDBRANCH  15  20
ENDBRANCH   1  16
TORSDOF 6
