REMARK  Name = NS3
REMARK  3 active torsions:
REMARK  status: ('A' for Active; 'I' for Inactive)
REMARK    1  A    between atoms: C_5  and  C_6
REMARK    2  A    between atoms: C_18  and  S_19
REMARK    3  A    between atoms: S_19  and  N_22
REMARK                            x       y       z     vdW  Elec       q    Type
REMARK                         _______ _______ _______ _____ _____    ______ ____
ROOT
ATOM      1  C   UNL     1      -2.240   1.079   0.000  0.00  0.00    +0.000 C 
ATOM      2  N   UNL     1      -1.525   1.491   0.000  0.00  0.00    +0.000 NA
ATOM      3  N   UNL     1      -2.240   0.254   0.000  0.00  0.00    +0.000 NA
ATOM      4  S   UNL     1      -1.525  -0.159   0.000  0.00  0.00    +0.000 S 
ATOM      5  O   UNL     1      -0.995  -0.791   0.000  0.00  0.00    +0.000 OA
ATOM      6  O   UNL     1      -2.056  -0.791   0.000  0.00  0.00    +0.000 OA
ATOM      7  C   UNL     1      -0.811   0.254   0.000  0.00  0.00    +0.000 A 
ATOM      8  C   UNL     1      -0.096  -0.159   0.000  0.00  0.00    +0.000 A 
ATOM      9  C   UNL     1      -0.811   1.079   0.000  0.00  0.00    +0.000 A 
ATOM     10  C   UNL     1      -0.096   1.491   0.000  0.00  0.00    +0.000 A 
ATOM     11  C   UNL     1       0.618   1.079   0.000  0.00  0.00    +0.000 A 
ATOM     12  C   UNL     1       1.333   1.491   0.000  0.00  0.00    +0.000 C 
ATOM     13  C   UNL     1       0.618   0.254   0.000  0.00  0.00    +0.000 A 
ENDROOT
BRANCH   1  18
ATOM     14  C   UNL     1      -3.041   2.312   0.000  0.00  0.00    +0.000 C 
ATOM     15  C   UNL     1      -3.848   2.483   0.000  0.00  0.00    +0.000 C 
ATOM     16  C   UNL     1      -4.260   1.769   0.000  0.00  0.00    +0.000 C 
ATOM     17  C   UNL     1      -3.708   1.155   0.000  0.00  0.00    +0.000 C 
ATOM     18  C   UNL     1      -2.954   1.491   0.000  0.00  0.00    +0.000 C 
ENDBRANCH   1  18
BRANCH  13  19
ATOM     19  S   UNL     1       1.333  -0.159   0.000  0.00  0.00    +0.000 S 
ATOM     20  O   UNL     1       0.920  -0.874   0.000  0.00  0.00    +0.000 OA
ATOM     21  O   UNL     1       1.745   0.555   0.000  0.00  0.00    +0.000 OA
BRANCH  19  22
ATOM     22  N   UNL     1       2.047  -0.572   0.000  0.00  0.00    +0.000 NA
ATOM     23  C   UNL     1       2.047  -1.397   0.000  0.00  0.00    +0.000 C 
ATOM     24  C   UNL     1       2.762  -1.809   0.000  0.00  0.00    +0.000 C 
ATOM     25  N   UNL     1       3.476  -1.397   0.000  0.00  0.00    +0.000 NA
ATOM     26  C   UNL     1       4.191  -1.809   0.000  0.00  0.00    +0.000 C 
ATOM     27  C   UNL     1       3.476  -0.572   0.000  0.00  0.00    +0.000 C 
ATOM     28  C   UNL     1       2.762  -0.159   0.000  0.00  0.00    +0.000 C 
ENDBRANCH  19  22
ENDBRANCH  13  19
TORSDOF 3
