REMARK  Name = NS6
REMARK  3 active torsions:
REMARK  status: ('A' for Active; 'I' for Inactive)
REMARK    1  A    between atoms: C_5  and  C_6
REMARK    2  A    between atoms: C_17  and  S_18
REMARK    3  A    between atoms: S_18  and  N_21
REMARK                            x       y       z     vdW  Elec       q    Type
REMARK                         _______ _______ _______ _____ _____    ______ ____
ROOT
ATOM      1  C   UNL     1      -2.176  -0.749   0.000  0.00  0.00    +0.000 C 
ATOM      2  C   UNL     1      -1.461  -1.161   0.000  0.00  0.00    +0.000 C 
ATOM      3  N   UNL     1      -2.176   0.076   0.000  0.00  0.00    +0.000 NA
ATOM      4  S   UNL     1      -1.461   0.489   0.000  0.00  0.00    +0.000 S 
ATOM      5  O   UNL     1      -1.074   1.217   0.000  0.00  0.00    +0.000 OA
ATOM      6  O   UNL     1      -1.849   1.217   0.000  0.00  0.00    +0.000 OA
ATOM      7  C   UNL     1      -0.747   0.076   0.000  0.00  0.00    +0.000 A 
ATOM      8  C   UNL     1      -0.032   0.489   0.000  0.00  0.00    +0.000 A 
ATOM      9  C   UNL     1      -0.747  -0.749   0.000  0.00  0.00    +0.000 A 
ATOM     10  C   UNL     1      -0.032  -1.161   0.000  0.00  0.00    +0.000 A 
ATOM     11  C   UNL     1       0.682  -0.749   0.000  0.00  0.00    +0.000 A 
ATOM     12  C   UNL     1       0.682   0.076   0.000  0.00  0.00    +0.000 A 
ENDROOT
BRANCH   1  17
ATOM     13  C   UNL     1      -3.644  -0.826   0.000  0.00  0.00    +0.000 C 
ATOM     14  C   UNL     1      -4.196  -1.439   0.000  0.00  0.00    +0.000 C 
ATOM     15  C   UNL     1      -3.784  -2.153   0.000  0.00  0.00    +0.000 C 
ATOM     16  C   UNL     1      -2.977  -1.982   0.000  0.00  0.00    +0.000 C 
ATOM     17  C   UNL     1      -2.890  -1.161   0.000  0.00  0.00    +0.000 C 
ENDBRANCH   1  17
BRANCH  12  18
ATOM     18  S   UNL     1       1.397   0.489   0.000  0.00  0.00    +0.000 S 
ATOM     19  O   UNL     1       1.809  -0.226   0.000  0.00  0.00    +0.000 OA
ATOM     20  O   UNL     1       0.984   1.203   0.000  0.00  0.00    +0.000 OA
BRANCH  18  21
ATOM     21  N   UNL     1       2.111   0.901   0.000  0.00  0.00    +0.000 NA
ATOM     22  C   UNL     1       2.111   1.726   0.000  0.00  0.00    +0.000 C 
ATOM     23  C   UNL     1       2.825   2.139   0.000  0.00  0.00    +0.000 C 
ATOM     24  N   UNL     1       3.540   1.726   0.000  0.00  0.00    +0.000 NA
ATOM     25  C   UNL     1       4.254   2.139   0.000  0.00  0.00    +0.000 C 
ATOM     26  C   UNL     1       3.540   0.901   0.000  0.00  0.00    +0.000 C 
ATOM     27  C   UNL     1       2.825   0.489   0.000  0.00  0.00    +0.000 C 
ENDBRANCH  18  21
ENDBRANCH  12  18
TORSDOF 3
