REMARK  Name = NS7
REMARK  3 active torsions:
REMARK  status: ('A' for Active; 'I' for Inactive)
REMARK    1  A    between atoms: C_5  and  C_6
REMARK    2  A    between atoms: C_18  and  S_19
REMARK    3  A    between atoms: S_19  and  N_22
REMARK                            x       y       z     vdW  Elec       q    Type
REMARK                         _______ _______ _______ _____ _____    ______ ____
ROOT
ATOM      1  C   UNL     1      -2.287   0.315   0.000  0.00  0.00    +0.000 C 
ATOM      2  C   UNL     1      -1.572   0.728   0.000  0.00  0.00    +0.000 C 
ATOM      3  N   UNL     1      -2.287  -0.510   0.000  0.00  0.00    +0.000 NA
ATOM      4  S   UNL     1      -1.572  -0.922   0.000  0.00  0.00    +0.000 S 
ATOM      5  O   UNL     1      -2.102  -1.554   0.000  0.00  0.00    +0.000 OA
ATOM      6  O   UNL     1      -1.042  -1.554   0.000  0.00  0.00    +0.000 OA
ATOM      7  C   UNL     1      -0.858  -0.510   0.000  0.00  0.00    +0.000 A 
ATOM      8  C   UNL     1      -0.143  -0.922   0.000  0.00  0.00    +0.000 A 
ATOM      9  C   UNL     1      -0.858   0.315   0.000  0.00  0.00    +0.000 A 
ATOM     10  C   UNL     1      -0.143   0.728   0.000  0.00  0.00    +0.000 A 
ATOM     11  C   UNL     1       0.571   0.315   0.000  0.00  0.00    +0.000 A 
ATOM     12  C   UNL     1       1.286   0.728   0.000  0.00  0.00    +0.000 C 
ATOM     13  C   UNL     1       0.571  -0.510   0.000  0.00  0.00    +0.000 A 
ENDROOT
BRANCH   1  18
ATOM     14  C   UNL     1      -3.755   0.392   0.000  0.00  0.00    +0.000 C 
ATOM     15  C   UNL     1      -4.307   1.005   0.000  0.00  0.00    +0.000 C 
ATOM     16  C   UNL     1      -3.894   1.720   0.000  0.00  0.00    +0.000 C 
ATOM     17  C   UNL     1      -3.087   1.548   0.000  0.00  0.00    +0.000 C 
ATOM     18  C   UNL     1      -3.001   0.728   0.000  0.00  0.00    +0.000 C 
ENDBRANCH   1  18
BRANCH  13  19
ATOM     19  S   UNL     1       1.286  -0.922   0.000  0.00  0.00    +0.000 S 
ATOM     20  O   UNL     1       0.873  -1.637   0.000  0.00  0.00    +0.000 OA
ATOM     21  O   UNL     1       1.698  -0.208   0.000  0.00  0.00    +0.000 OA
BRANCH  19  22
ATOM     22  N   UNL     1       2.000  -1.335   0.000  0.00  0.00    +0.000 NA
ATOM     23  C   UNL     1       2.000  -2.160   0.000  0.00  0.00    +0.000 C 
ATOM     24  C   UNL     1       2.715  -2.572   0.000  0.00  0.00    +0.000 C 
ATOM     25  N   UNL     1       3.429  -2.160   0.000  0.00  0.00    +0.000 NA
ATOM     26  C   UNL     1       4.144  -2.572   0.000  0.00  0.00    +0.000 C 
ATOM     27  C   UNL     1       3.429  -1.335   0.000  0.00  0.00    +0.000 C 
ATOM     28  C   UNL     1       2.715  -0.922   0.000  0.00  0.00    +0.000 C 
ENDBRANCH  19  22
ENDBRANCH  13  19
TORSDOF 3
