REMARK  Name = NSC
REMARK  2 active torsions:
REMARK  status: ('A' for Active; 'I' for Inactive)
REMARK    1  A    between atoms: C_12  and  N_13
REMARK    2  A    between atoms: N_16  and  C_17
REMARK                            x       y       z     vdW  Elec       q    Type
REMARK                         _______ _______ _______ _____ _____    ______ ____
ROOT
ATOM      1  N   UNL     1       1.880   0.347   0.000  0.00  0.00    +0.000 NA
ATOM      2  C   UNL     1       2.595  -0.066   0.000  0.00  0.00    +0.000 C 
ATOM      3  O   UNL     1       2.595  -0.891   0.000  0.00  0.00    +0.000 OA
ATOM      4  N   UNL     1       3.309   0.347   0.000  0.00  0.00    +0.000 NA
ENDROOT
BRANCH   1  16
ATOM      5  C   UNL     1       1.166  -0.891   0.000  0.00  0.00    +0.000 A 
ATOM      6  C   UNL     1       0.451  -1.303   0.000  0.00  0.00    +0.000 A 
ATOM      7  C   UNL     1       0.451  -2.128   0.000  0.00  0.00    +0.000 A 
ATOM      8  N   UNL     1       1.166  -2.541   0.000  0.00  0.00    +0.000 NA
ATOM      9  C   UNL     1      -0.263  -2.541   0.000  0.00  0.00    +0.000 A 
ATOM     10  C   UNL     1      -0.978  -2.128   0.000  0.00  0.00    +0.000 A 
ATOM     11  C   UNL     1      -1.692  -2.541   0.000  0.00  0.00    +0.000 C 
ATOM     12  N   UNL     1      -0.978  -1.303   0.000  0.00  0.00    +0.000 NA
ATOM     13  C   UNL     1      -0.263  -0.891   0.000  0.00  0.00    +0.000 A 
ATOM     14  C   UNL     1      -0.263  -0.066   0.000  0.00  0.00    +0.000 A 
ATOM     15  C   UNL     1       0.451   0.347   0.000  0.00  0.00    +0.000 A 
ATOM     16  C   UNL     1       1.166  -0.066   0.000  0.00  0.00    +0.000 A 
ENDBRANCH   1  16
BRANCH   4  17
ATOM     17  C   UNL     1       4.024  -0.066   0.000  0.00  0.00    +0.000 A 
ATOM     18  C   UNL     1       4.738   0.347   0.000  0.00  0.00    +0.000 A 
ATOM     19  C   UNL     1       5.452  -0.066   0.000  0.00  0.00    +0.000 A 
ATOM     20  C   UNL     1       6.167   0.347   0.000  0.00  0.00    +0.000 A 
ATOM     21  N   UNL     1       6.167   1.172   0.000  0.00  0.00    +0.000 NA
ATOM     22  C   UNL     1       6.881  -0.066   0.000  0.00  0.00    +0.000 A 
ATOM     23  C   UNL     1       6.881  -0.891   0.000  0.00  0.00    +0.000 A 
ATOM     24  C   UNL     1       7.596  -1.303   0.000  0.00  0.00    +0.000 C 
ATOM     25  N   UNL     1       6.167  -1.303   0.000  0.00  0.00    +0.000 NA
ATOM     26  C   UNL     1       5.452  -0.891   0.000  0.00  0.00    +0.000 A 
ATOM     27  C   UNL     1       4.738  -1.303   0.000  0.00  0.00    +0.000 A 
ATOM     28  C   UNL     1       4.024  -0.891   0.000  0.00  0.00    +0.000 A 
ENDBRANCH   4  17
TORSDOF 2
