REMARK  Name = NTD
REMARK  3 active torsions:
REMARK  status: ('A' for Active; 'I' for Inactive)
REMARK    1  A    between atoms: C_9  and  C_11
REMARK    2  A    between atoms: C_14  and  C_15
REMARK    3  A    between atoms: C_20  and  N_21
REMARK                            x       y       z     vdW  Elec       q    Type
REMARK                         _______ _______ _______ _____ _____    ______ ____
ROOT
ATOM      1  C   UNL     1       0.942  -0.342   0.000  0.00  0.00    +0.000 A 
ATOM      2  C   UNL     1       0.942   0.483   0.000  0.00  0.00    +0.000 A 
ATOM      3  C   UNL     1       1.657   0.896   0.000  0.00  0.00    +0.000 A 
ATOM      4  C   UNL     1       2.371   0.483   0.000  0.00  0.00    +0.000 A 
ATOM      5  C   UNL     1       2.371  -0.342   0.000  0.00  0.00    +0.000 A 
ATOM      6  C   UNL     1       1.657  -0.754   0.000  0.00  0.00    +0.000 A 
ENDROOT
BRANCH   1  15
ATOM      7  O   UNL     1      -1.201  -1.579   0.000  0.00  0.00    +0.000 OA
ATOM      8  C   UNL     1      -1.201  -0.754   0.000  0.00  0.00    +0.000 C 
ATOM      9  C   UNL     1      -1.916  -0.342   0.000  0.00  0.00    +0.000 C 
ATOM     10  C   UNL     1      -1.916   0.483   0.000  0.00  0.00    +0.000 C 
ATOM     11  C   UNL     1      -1.201   0.896   0.000  0.00  0.00    +0.000 C 
ATOM     12  C   UNL     1      -0.487   0.483   0.000  0.00  0.00    +0.000 C 
ATOM     13  O   UNL     1       0.228   0.896   0.000  0.00  0.00    +0.000 OA
ATOM     14  C   UNL     1      -0.487  -0.342   0.000  0.00  0.00    +0.000 C 
ATOM     15  C   UNL     1       0.228  -0.754   0.000  0.00  0.00    +0.000 C 
ATOM     16  O   UNL     1       0.228  -1.579   0.000  0.00  0.00    +0.000 OA
ENDBRANCH   1  15
BRANCH   4  17
ATOM     17  C   UNL     1       3.086   0.896   0.000  0.00  0.00    +0.000 C 
ATOM     18  F   UNL     1       3.800   1.308   0.000  0.00  0.00    +0.000 F 
ATOM     19  F   UNL     1       3.498   0.181   0.000  0.00  0.00    +0.000 F 
ATOM     20  F   UNL     1       2.673   1.610   0.000  0.00  0.00    +0.000 F 
ENDBRANCH   4  17
BRANCH   6  21
ATOM     21  N   UNL     1       1.657  -1.579   0.000  0.00  0.00    +0.000 N 
ATOM     22  O   UNL     1       2.371  -1.992   0.000  0.00  0.00    +0.000 OA
ATOM     23  O   UNL     1       0.942  -1.992   0.000  0.00  0.00    +0.000 OA
ENDBRANCH   6  21
TORSDOF 3
