REMARK  Name = NTH
REMARK  5 active torsions:
REMARK  status: ('A' for Active; 'I' for Inactive)
REMARK    1  A    between atoms: C_18  and  O_19
REMARK    2  A    between atoms: O_19  and  C_21
REMARK    3  A    between atoms: C_21  and  C_24
REMARK    4  A    between atoms: C_23  and  C_24
REMARK    5  A    between atoms: C_23  and  C_25
REMARK                            x       y       z     vdW  Elec       q    Type
REMARK                         _______ _______ _______ _____ _____    ______ ____
ROOT
ATOM      1  C   UNL     1      -0.202   2.191   0.000  0.00  0.00    +0.000 C 
ATOM      2  C   UNL     1      -0.457   2.975   0.000  0.00  0.00    +0.000 C 
ATOM      3  C   UNL     1      -1.264   3.147   0.000  0.00  0.00    +0.000 C 
ATOM      4  O   UNL     1      -1.519   3.931   0.000  0.00  0.00    +0.000 OA
ATOM      5  C   UNL     1      -1.816   2.534   0.000  0.00  0.00    +0.000 C 
ATOM      6  C   UNL     1      -1.561   1.749   0.000  0.00  0.00    +0.000 C 
ATOM      7  C   UNL     1      -2.113   1.136   0.000  0.00  0.00    +0.000 C 
ATOM      8  C   UNL     1      -1.858   0.351   0.000  0.00  0.00    +0.000 C 
ATOM      9  C   UNL     1      -1.051   0.180   0.000  0.00  0.00    +0.000 C 
ATOM     10  C   UNL     1      -0.499   0.793   0.000  0.00  0.00    +0.000 C 
ATOM     11  C   UNL     1      -0.754   1.577   0.000  0.00  0.00    +0.000 C 
ATOM     12  C   UNL     1       0.308   0.621   0.000  0.00  0.00    +0.000 C 
ATOM     13  C   UNL     1       0.563  -0.163   0.000  0.00  0.00    +0.000 C 
ATOM     14  C   UNL     1       0.011  -0.776   0.000  0.00  0.00    +0.000 C 
ATOM     15  C   UNL     1      -0.796  -0.605   0.000  0.00  0.00    +0.000 C 
ATOM     16  C   UNL     1      -1.209  -1.319   0.000  0.00  0.00    +0.000 C 
ATOM     17  C   UNL     1      -0.657  -1.932   0.000  0.00  0.00    +0.000 C 
ATOM     18  C   UNL     1       0.097  -1.597   0.000  0.00  0.00    +0.000 C 
ATOM     19  C   UNL     1       0.795  -1.031   0.000  0.00  0.00    +0.000 C 
ENDROOT
BRANCH  18  20
ATOM     20  O   UNL     1       0.811  -2.009   0.000  0.00  0.00    +0.000 OA
BRANCH  20  21
ATOM     21  C   UNL     1       1.526  -1.597   0.000  0.00  0.00    +0.000 C 
ATOM     22  O   UNL     1       1.526  -0.772   0.000  0.00  0.00    +0.000 OA
BRANCH  21  23
ATOM     23  C   UNL     1       2.240  -2.009   0.000  0.00  0.00    +0.000 C 
BRANCH  23  24
ATOM     24  C   UNL     1       2.955  -1.597   0.000  0.00  0.00    +0.000 C 
BRANCH  24  25
ATOM     25  C   UNL     1       3.669  -2.009   0.000  0.00  0.00    +0.000 C 
ATOM     26  O   UNL     1       4.384  -1.597   0.000  0.00  0.00    +0.000 OA
ATOM     27  O   UNL     1       3.669  -2.834   0.000  0.00  0.00    +0.000 OA
ENDBRANCH  24  25
ENDBRANCH  23  24
ENDBRANCH  21  23
ENDBRANCH  20  21
ENDBRANCH  18  20
TORSDOF 5
