REMARK  Name = NTS
REMARK  3 active torsions:
REMARK  status: ('A' for Active; 'I' for Inactive)
REMARK    1  A    between atoms: C_1  and  S_20
REMARK    2  A    between atoms: C_3  and  S_21
REMARK    3  A    between atoms: C_6  and  S_22
REMARK                            x       y       z     vdW  Elec       q    Type
REMARK                         _______ _______ _______ _____ _____    ______ ____
ROOT
ATOM      1  C   UNL     1      -0.566  -0.813   0.000  0.00  0.00    +0.000 A 
ATOM      2  C   UNL     1      -1.280  -0.401   0.000  0.00  0.00    +0.000 A 
ATOM      3  C   UNL     1      -1.280   0.424   0.000  0.00  0.00    +0.000 A 
ATOM      4  C   UNL     1      -0.566   0.837   0.000  0.00  0.00    +0.000 A 
ATOM      5  C   UNL     1       0.863   0.837   0.000  0.00  0.00    +0.000 A 
ATOM      6  C   UNL     1       1.578   0.424   0.000  0.00  0.00    +0.000 A 
ATOM      7  C   UNL     1       1.578  -0.401   0.000  0.00  0.00    +0.000 A 
ATOM      8  C   UNL     1       0.863  -0.813   0.000  0.00  0.00    +0.000 A 
ATOM      9  C   UNL     1       0.149  -0.401   0.000  0.00  0.00    +0.000 A 
ATOM     10  C   UNL     1       0.149   0.424   0.000  0.00  0.00    +0.000 A 
ENDROOT
BRANCH   1  14
ATOM     11  O   UNL     1      -0.566  -2.463   0.000  0.00  0.00    +0.000 OA
ATOM     12  O   UNL     1       0.259  -1.638   0.000  0.00  0.00    +0.000 OA
ATOM     13  O   UNL     1      -1.391  -1.638   0.000  0.00  0.00    +0.000 OA
ATOM     14  S   UNL     1      -0.566  -1.638   0.000  0.00  0.00    +0.000 S 
ENDBRANCH   1  14
BRANCH   3  18
ATOM     15  O   UNL     1      -2.709   1.249   0.000  0.00  0.00    +0.000 OA
ATOM     16  O   UNL     1      -1.582   1.551   0.000  0.00  0.00    +0.000 OA
ATOM     17  O   UNL     1      -2.407   0.122   0.000  0.00  0.00    +0.000 OA
ATOM     18  S   UNL     1      -1.995   0.837   0.000  0.00  0.00    +0.000 S 
ENDBRANCH   3  18
BRANCH   6  22
ATOM     19  O   UNL     1       3.007   1.249   0.000  0.00  0.00    +0.000 OA
ATOM     20  O   UNL     1       2.705   0.122   0.000  0.00  0.00    +0.000 OA
ATOM     21  O   UNL     1       1.880   1.551   0.000  0.00  0.00    +0.000 OA
ATOM     22  S   UNL     1       2.292   0.837   0.000  0.00  0.00    +0.000 S 
ENDBRANCH   6  22
TORSDOF 3
