REMARK  Name = NU1
REMARK  0 active torsions:
REMARK  status: ('A' for Active; 'I' for Inactive)
REMARK                            x       y       z     vdW  Elec       q    Type
REMARK                         _______ _______ _______ _____ _____    ______ ____
ROOT
ATOM      1  C   UNL     1      -0.917   0.642   0.000  0.00  0.00    +0.000 A 
ATOM      2  O   UNL     1      -0.917   1.467   0.000  0.00  0.00    +0.000 OA
ATOM      3  C   UNL     1      -0.202   0.230   0.000  0.00  0.00    +0.000 A 
ATOM      4  N   UNL     1       0.512   0.642   0.000  0.00  0.00    +0.000 NA
ATOM      5  C   UNL     1       1.227   0.230   0.000  0.00  0.00    +0.000 A 
ATOM      6  C   UNL     1       1.941   0.642   0.000  0.00  0.00    +0.000 C 
ATOM      7  N   UNL     1       1.227  -0.595   0.000  0.00  0.00    +0.000 NA
ATOM      8  C   UNL     1       0.512  -1.008   0.000  0.00  0.00    +0.000 A 
ATOM      9  O   UNL     1       0.512  -1.833   0.000  0.00  0.00    +0.000 OA
ATOM     10  C   UNL     1      -0.202  -0.595   0.000  0.00  0.00    +0.000 A 
ATOM     11  C   UNL     1      -0.917  -1.008   0.000  0.00  0.00    +0.000 A 
ATOM     12  C   UNL     1      -1.631  -0.595   0.000  0.00  0.00    +0.000 A 
ATOM     13  C   UNL     1      -1.631   0.230   0.000  0.00  0.00    +0.000 A 
ENDROOT
TORSDOF 0
