REMARK  Name = NU5
REMARK  11 active torsions:
REMARK  status: ('A' for Active; 'I' for Inactive)
REMARK    1  A    between atoms: S_2  and  C_4
REMARK    2  A    between atoms: S_2  and  C_11
REMARK    3  A    between atoms: C_4  and  C_5
REMARK    4  A    between atoms: C_5  and  N_6
REMARK    5  A    between atoms: N_6  and  C_7
REMARK    6  A    between atoms: C_7  and  C_8
REMARK    7  A    between atoms: C_8  and  C_9
REMARK    8  A    between atoms: C_14  and  N_17
REMARK    9  A    between atoms: C_20  and  O_27
REMARK   10  A    between atoms: O_27  and  C_28
REMARK   11  A    between atoms: C_28  and  C_29
REMARK                            x       y       z     vdW  Elec       q    Type
REMARK                         _______ _______ _______ _____ _____    ______ ____
ROOT
ATOM      1  N   UNL     1      -0.655  -0.213   0.000  0.00  0.00    +0.000 NA
ATOM      2  C   UNL     1      -0.655   0.612   0.000  0.00  0.00    +0.000 A 
ATOM      3  N   UNL     1      -1.369   1.024   0.000  0.00  0.00    +0.000 NA
ATOM      4  C   UNL     1      -1.369   1.849   0.000  0.00  0.00    +0.000 A 
ATOM      5  C   UNL     1      -0.655   2.262   0.000  0.00  0.00    +0.000 A 
ATOM      6  N   UNL     1      -0.483   3.069   0.000  0.00  0.00    +0.000 NA
ATOM      7  C   UNL     1       0.337   3.155   0.000  0.00  0.00    +0.000 A 
ATOM      8  N   UNL     1       0.673   2.401   0.000  0.00  0.00    +0.000 NA
ATOM      9  C   UNL     1       0.059   1.849   0.000  0.00  0.00    +0.000 A 
ATOM     10  N   UNL     1       0.059   1.024   0.000  0.00  0.00    +0.000 NA
ENDROOT
BRANCH   1  14
ATOM     11  C   UNL     1       1.488  -1.451   0.000  0.00  0.00    +0.000 A 
ATOM     12  C   UNL     1       0.774  -1.863   0.000  0.00  0.00    +0.000 A 
ATOM     13  C   UNL     1       0.059  -1.451   0.000  0.00  0.00    +0.000 A 
ATOM     14  C   UNL     1       0.059  -0.626   0.000  0.00  0.00    +0.000 A 
ATOM     15  C   UNL     1       0.774  -0.213   0.000  0.00  0.00    +0.000 A 
ATOM     16  C   UNL     1       1.488  -0.626   0.000  0.00  0.00    +0.000 A 
BRANCH  11  18
ATOM     17  O   UNL     1       2.615  -1.149   0.000  0.00  0.00    +0.000 OA
ATOM     18  S   UNL     1       2.203  -1.863   0.000  0.00  0.00    +0.000 S 
ATOM     19  O   UNL     1       1.790  -2.578   0.000  0.00  0.00    +0.000 OA
BRANCH  18  20
ATOM     20  C   UNL     1       2.917  -2.276   0.000  0.00  0.00    +0.000 C 
BRANCH  20  21
ATOM     21  C   UNL     1       3.632  -1.863   0.000  0.00  0.00    +0.000 C 
BRANCH  21  22
ATOM     22  N   UNL     1       4.346  -2.276   0.000  0.00  0.00    +0.000 NA
BRANCH  22  23
ATOM     23  C   UNL     1       5.061  -1.863   0.000  0.00  0.00    +0.000 C 
BRANCH  23  24
ATOM     24  C   UNL     1       5.775  -2.276   0.000  0.00  0.00    +0.000 C 
BRANCH  24  25
ATOM     25  C   UNL     1       6.490  -1.863   0.000  0.00  0.00    +0.000 C 
ATOM     26  O   UNL     1       7.204  -2.276   0.000  0.00  0.00    +0.000 OA
ENDBRANCH  24  25
ENDBRANCH  23  24
ENDBRANCH  22  23
ENDBRANCH  21  22
ENDBRANCH  20  21
ENDBRANCH  18  20
ENDBRANCH  11  18
ENDBRANCH   1  14
BRANCH   4  27
ATOM     27  O   UNL     1      -2.084   2.262   0.000  0.00  0.00    +0.000 OA
BRANCH  27  28
ATOM     28  C   UNL     1      -2.798   1.849   0.000  0.00  0.00    +0.000 C 
BRANCH  28  29
ATOM     29  C   UNL     1      -3.513   2.262   0.000  0.00  0.00    +0.000 C 
ATOM     30  C   UNL     1      -4.227   1.849   0.000  0.00  0.00    +0.000 C 
ATOM     31  C   UNL     1      -4.942   2.262   0.000  0.00  0.00    +0.000 C 
ATOM     32  C   UNL     1      -4.942   3.087   0.000  0.00  0.00    +0.000 C 
ATOM     33  C   UNL     1      -4.227   3.499   0.000  0.00  0.00    +0.000 C 
ATOM     34  C   UNL     1      -3.513   3.087   0.000  0.00  0.00    +0.000 C 
ENDBRANCH  28  29
ENDBRANCH  27  28
ENDBRANCH   4  27
TORSDOF 11
