REMARK  Name = NVC
REMARK  7 active torsions:
REMARK  status: ('A' for Active; 'I' for Inactive)
REMARK    1  A    between atoms: C_2  and  C_3
REMARK    2  A    between atoms: C_3  and  C_4
REMARK    3  A    between atoms: C_3  and  C_8
REMARK    4  A    between atoms: C_4  and  C_5
REMARK    5  A    between atoms: C_5  and  C_6
REMARK    6  A    between atoms: C_8  and  N_9
REMARK    7  A    between atoms: C_14  and  C_18
REMARK                            x       y       z     vdW  Elec       q    Type
REMARK                         _______ _______ _______ _____ _____    ______ ____
ROOT
ATOM      1  O   UNL     1      -0.582   0.330   0.000  0.00  0.00    +0.000 OA
ATOM      2  C   UNL     1       0.133  -0.083   0.000  0.00  0.00    +0.000 C 
ATOM      3  N   UNL     1       0.848   0.330   0.000  0.00  0.00    +0.000 N 
ATOM      4  C   UNL     1       0.934   1.150   0.000  0.00  0.00    +0.000 C 
ATOM      5  C   UNL     1       1.741   1.322   0.000  0.00  0.00    +0.000 C 
ATOM      6  C   UNL     1       2.153   0.607   0.000  0.00  0.00    +0.000 C 
ATOM      7  C   UNL     1       1.601  -0.006   0.000  0.00  0.00    +0.000 C 
ENDROOT
BRANCH   4   8
ATOM      8  C   UNL     1       0.321   1.702   0.000  0.00  0.00    +0.000 A 
ATOM      9  O   UNL     1       0.407   2.523   0.000  0.00  0.00    +0.000 OA
ATOM     10  C   UNL     1      -0.347   2.858   0.000  0.00  0.00    +0.000 A 
ATOM     11  C   UNL     1      -0.899   2.245   0.000  0.00  0.00    +0.000 A 
ATOM     12  N   UNL     1      -0.486   1.531   0.000  0.00  0.00    +0.000 NA
ATOM     13  C   UNL     1      -0.602   3.643   0.000  0.00  0.00    +0.000 A 
ATOM     14  C   UNL     1      -1.409   3.814   0.000  0.00  0.00    +0.000 A 
ATOM     15  C   UNL     1      -1.961   3.201   0.000  0.00  0.00    +0.000 A 
ATOM     16  C   UNL     1      -1.706   2.417   0.000  0.00  0.00    +0.000 A 
ENDBRANCH   4   8
BRANCH   2  17
ATOM     17  C   UNL     1       0.133  -0.908   0.000  0.00  0.00    +0.000 C 
BRANCH  17  18
ATOM     18  C   UNL     1      -0.582  -1.320   0.000  0.00  0.00    +0.000 C 
BRANCH  18  19
ATOM     19  C   UNL     1      -0.582  -2.145   0.000  0.00  0.00    +0.000 C 
BRANCH  19  20
ATOM     20  C   UNL     1      -1.296  -2.558   0.000  0.00  0.00    +0.000 C 
ATOM     21  C   UNL     1      -1.296  -3.383   0.000  0.00  0.00    +0.000 C 
ENDBRANCH  19  20
ENDBRANCH  18  19
ENDBRANCH  17  18
BRANCH  17  22
ATOM     22  C   UNL     1       0.848  -1.320   0.000  0.00  0.00    +0.000 C 
BRANCH  22  23
ATOM     23  N   UNL     1       0.848  -2.145   0.000  0.00  0.00    +0.000 N 
ATOM     24  O   UNL     1       0.133  -2.558   0.000  0.00  0.00    +0.000 OA
ATOM     25  C   UNL     1       1.562  -2.558   0.000  0.00  0.00    +0.000 C 
ATOM     26  O   UNL     1       1.562  -3.383   0.000  0.00  0.00    +0.000 OA
ENDBRANCH  22  23
ENDBRANCH  17  22
ENDBRANCH   2  17
TORSDOF 7
