REMARK  Name = NW1
REMARK  4 active torsions:
REMARK  status: ('A' for Active; 'I' for Inactive)
REMARK    1  A    between atoms: C_2  and  O_3
REMARK    2  A    between atoms: O_3  and  C_4
REMARK    3  A    between atoms: C_4  and  C_5
REMARK    4  A    between atoms: C_11  and  N_12
REMARK                            x       y       z     vdW  Elec       q    Type
REMARK                         _______ _______ _______ _____ _____    ______ ____
ROOT
ATOM      1  N   UNL     1      -1.065   1.057   0.000  0.00  0.00    +0.000 NA
ATOM      2  C   UNL     1      -1.065   0.232   0.000  0.00  0.00    +0.000 A 
ATOM      3  C   UNL     1      -1.780  -0.181   0.000  0.00  0.00    +0.000 A 
ATOM      4  C   UNL     1      -2.494   0.232   0.000  0.00  0.00    +0.000 A 
ATOM      5  N   UNL     1      -3.209  -0.181   0.000  0.00  0.00    +0.000 NA
ATOM      6  N   UNL     1      -2.494   1.057   0.000  0.00  0.00    +0.000 NA
ATOM      7  C   UNL     1      -1.780   1.469   0.000  0.00  0.00    +0.000 A 
ATOM      8  N   UNL     1      -1.780   2.294   0.000  0.00  0.00    +0.000 NA
ENDROOT
BRANCH   3   9
ATOM      9  N   UNL     1      -1.780  -1.006   0.000  0.00  0.00    +0.000 NA
ATOM     10  O   UNL     1      -1.065  -1.418   0.000  0.00  0.00    +0.000 OA
ENDBRANCH   3   9
BRANCH   2  11
ATOM     11  O   UNL     1      -0.351  -0.181   0.000  0.00  0.00    +0.000 OA
BRANCH  11  12
ATOM     12  C   UNL     1       0.363   0.232   0.000  0.00  0.00    +0.000 C 
BRANCH  12  13
ATOM     13  C   UNL     1       1.078  -0.181   0.000  0.00  0.00    +0.000 C 
ATOM     14  C   UNL     1       1.792   0.232   0.000  0.00  0.00    +0.000 C 
ATOM     15  C   UNL     1       2.507  -0.181   0.000  0.00  0.00    +0.000 C 
ATOM     16  C   UNL     1       2.507  -1.006   0.000  0.00  0.00    +0.000 C 
ATOM     17  C   UNL     1       1.792  -1.418   0.000  0.00  0.00    +0.000 C 
ATOM     18  C   UNL     1       1.078  -1.006   0.000  0.00  0.00    +0.000 C 
ENDBRANCH  12  13
ENDBRANCH  11  12
ENDBRANCH   2  11
TORSDOF 4
