REMARK  Name = OA1
REMARK  2 active torsions:
REMARK  status: ('A' for Active; 'I' for Inactive)
REMARK    1  A    between atoms: C_7  and  C_8
REMARK    2  A    between atoms: C_8  and  C_10
REMARK                            x       y       z     vdW  Elec       q    Type
REMARK                         _______ _______ _______ _____ _____    ______ ____
ROOT
ATOM      1  C   UNL     1       1.394   0.128   0.000  0.00  0.00    +0.000 C 
ATOM      2  O   UNL     1       2.109   0.540   0.000  0.00  0.00    +0.000 OA
ENDROOT
BRANCH   1   9
ATOM      3 BR   UNL     1      -0.035   2.603   0.000  0.00  0.00    +0.000 Br
ATOM      4  C   UNL     1      -0.035   1.778   0.000  0.00  0.00    +0.000 A 
ATOM      5  C   UNL     1       0.680   1.365   0.000  0.00  0.00    +0.000 A 
ATOM      6  C   UNL     1      -0.749   1.365   0.000  0.00  0.00    +0.000 A 
ATOM      7  C   UNL     1      -0.749   0.540   0.000  0.00  0.00    +0.000 A 
ATOM      8  C   UNL     1      -0.035   0.128   0.000  0.00  0.00    +0.000 A 
ATOM      9  C   UNL     1       0.680   0.540   0.000  0.00  0.00    +0.000 A 
ENDBRANCH   1   9
BRANCH   1  10
ATOM     10  C   UNL     1       1.394  -0.697   0.000  0.00  0.00    +0.000 A 
ATOM     11  O   UNL     1       2.062  -1.182   0.000  0.00  0.00    +0.000 OA
ATOM     12  C   UNL     1       1.807  -1.967   0.000  0.00  0.00    +0.000 A 
ATOM     13  N   UNL     1       2.292  -2.634   0.000  0.00  0.00    +0.000 NA
ATOM     14  N   UNL     1       0.982  -1.967   0.000  0.00  0.00    +0.000 NA
ATOM     15  C   UNL     1       0.727  -1.182   0.000  0.00  0.00    +0.000 A 
ENDBRANCH   1  10
TORSDOF 2
