REMARK  Name = OA2
REMARK  5 active torsions:
REMARK  status: ('A' for Active; 'I' for Inactive)
REMARK    1  A    between atoms: C_2  and  C_3
REMARK    2  A    between atoms: N_9  and  C_10
REMARK    3  A    between atoms: N_9  and  C_17
REMARK    4  A    between atoms: C_10  and  C_11
REMARK    5  A    between atoms: C_17  and  C_18
REMARK                            x       y       z     vdW  Elec       q    Type
REMARK                         _______ _______ _______ _____ _____    ______ ____
ROOT
ATOM      1  O   UNL     1      -1.373   0.054   0.000  0.00  0.00    +0.000 OA
ATOM      2  C   UNL     1      -0.658  -0.358   0.000  0.00  0.00    +0.000 C 
ATOM      3  N   UNL     1       0.056   0.054   0.000  0.00  0.00    +0.000 N 
ENDROOT
BRANCH   2   4
ATOM      4  C   UNL     1      -0.658  -1.183   0.000  0.00  0.00    +0.000 A 
ATOM      5  O   UNL     1      -1.325  -1.668   0.000  0.00  0.00    +0.000 OA
ATOM      6  C   UNL     1      -1.071  -2.453   0.000  0.00  0.00    +0.000 A 
ATOM      7  N   UNL     1      -1.556  -3.120   0.000  0.00  0.00    +0.000 NA
ATOM      8  N   UNL     1      -0.246  -2.453   0.000  0.00  0.00    +0.000 NA
ATOM      9  C   UNL     1       0.009  -1.668   0.000  0.00  0.00    +0.000 A 
ENDBRANCH   2   4
BRANCH   3  10
ATOM     10  C   UNL     1       0.056   0.879   0.000  0.00  0.00    +0.000 C 
BRANCH  10  11
ATOM     11  C   UNL     1      -0.658   1.292   0.000  0.00  0.00    +0.000 A 
ATOM     12  C   UNL     1      -1.373   0.879   0.000  0.00  0.00    +0.000 A 
ATOM     13  C   UNL     1      -2.087   1.292   0.000  0.00  0.00    +0.000 A 
ATOM     14  C   UNL     1      -2.087   2.117   0.000  0.00  0.00    +0.000 A 
ATOM     15  C   UNL     1      -1.373   2.530   0.000  0.00  0.00    +0.000 A 
ATOM     16  C   UNL     1      -0.658   2.117   0.000  0.00  0.00    +0.000 A 
ENDBRANCH  10  11
ENDBRANCH   3  10
BRANCH   3  17
ATOM     17  C   UNL     1       0.771  -0.358   0.000  0.00  0.00    +0.000 C 
BRANCH  17  18
ATOM     18  C   UNL     1       1.485   0.054   0.000  0.00  0.00    +0.000 A 
ATOM     19  C   UNL     1       1.485   0.879   0.000  0.00  0.00    +0.000 A 
ATOM     20  C   UNL     1       2.200   1.292   0.000  0.00  0.00    +0.000 A 
ATOM     21  C   UNL     1       2.914   0.879   0.000  0.00  0.00    +0.000 A 
ATOM     22  C   UNL     1       2.914   0.054   0.000  0.00  0.00    +0.000 A 
ATOM     23  C   UNL     1       2.200  -0.358   0.000  0.00  0.00    +0.000 A 
ENDBRANCH  17  18
ENDBRANCH   3  17
TORSDOF 5
