REMARK  Name = OA3
REMARK  0 active torsions:
REMARK  status: ('A' for Active; 'I' for Inactive)
REMARK                            x       y       z     vdW  Elec       q    Type
REMARK                         _______ _______ _______ _____ _____    ______ ____
ROOT
ATOM      1  O   UNL     1       0.284  -1.655   0.000  0.00  0.00    +0.000 OA
ATOM      2  C   UNL     1       0.284  -0.830   0.000  0.00  0.00    +0.000 C 
ATOM      3  C   UNL     1      -0.431  -0.418   0.000  0.00  0.00    +0.000 C 
ATOM      4  C   UNL     1      -0.431   0.407   0.000  0.00  0.00    +0.000 C 
ATOM      5  C   UNL     1      -1.243   0.264   0.000  0.00  0.00    +0.000 C 
ATOM      6  C   UNL     1      -0.713   1.183   0.000  0.00  0.00    +0.000 C 
ATOM      7  C   UNL     1       0.284   0.820   0.000  0.00  0.00    +0.000 C 
ATOM      8  C   UNL     1       0.998   0.407   0.000  0.00  0.00    +0.000 A 
ATOM      9  N   UNL     1       1.713   0.820   0.000  0.00  0.00    +0.000 NA
ATOM     10  C   UNL     1       2.427   0.407   0.000  0.00  0.00    +0.000 A 
ATOM     11  N   UNL     1       2.427  -0.418   0.000  0.00  0.00    +0.000 NA
ATOM     12  C   UNL     1       1.713  -0.830   0.000  0.00  0.00    +0.000 A 
ATOM     13  C   UNL     1       0.998  -0.418   0.000  0.00  0.00    +0.000 A 
ATOM     14  N   UNL     1       1.713  -1.655   0.000  0.00  0.00    +0.000 NA
ENDROOT
TORSDOF 0
