REMARK  Name = OA4
REMARK  1 active torsions:
REMARK  status: ('A' for Active; 'I' for Inactive)
REMARK    1  A    between atoms: C_10  and  C_18
REMARK                            x       y       z     vdW  Elec       q    Type
REMARK                         _______ _______ _______ _____ _____    ______ ____
ROOT
ATOM      1  C   UNL     1      -1.052  -1.165   0.000  0.00  0.00    +0.000 A 
ATOM      2  C   UNL     1      -1.052  -0.340   0.000  0.00  0.00    +0.000 A 
ATOM      3  C   UNL     1      -1.767   0.072   0.000  0.00  0.00    +0.000 A 
ATOM      4  N   UNL     1      -2.481  -0.340   0.000  0.00  0.00    +0.000 NA
ATOM      5  C   UNL     1      -2.481  -1.165   0.000  0.00  0.00    +0.000 A 
ATOM      6  N   UNL     1      -1.767  -1.578   0.000  0.00  0.00    +0.000 NA
ATOM      7  N   UNL     1      -1.767   0.897   0.000  0.00  0.00    +0.000 NA
ATOM      8  C   UNL     1      -0.338  -1.578   0.000  0.00  0.00    +0.000 A 
ATOM      9  C   UNL     1       0.377  -1.165   0.000  0.00  0.00    +0.000 A 
ATOM     10  C   UNL     1       0.377  -0.340   0.000  0.00  0.00    +0.000 A 
ATOM     11  C   UNL     1      -0.338   0.072   0.000  0.00  0.00    +0.000 A 
ATOM     12  N   UNL     1      -3.196  -1.578   0.000  0.00  0.00    +0.000 NA
ATOM     13  C   UNL     1      -0.338   0.897   0.000  0.00  0.00    +0.000 C 
ENDROOT
BRANCH  10  18
ATOM     14  C   UNL     1       1.806   1.310   0.000  0.00  0.00    +0.000 A 
ATOM     15  C   UNL     1       2.520   0.897   0.000  0.00  0.00    +0.000 A 
ATOM     16  C   UNL     1       2.520   0.072   0.000  0.00  0.00    +0.000 A 
ATOM     17  C   UNL     1       1.806  -0.340   0.000  0.00  0.00    +0.000 A 
ATOM     18  C   UNL     1       1.091   0.072   0.000  0.00  0.00    +0.000 A 
ATOM     19  C   UNL     1       1.091   0.897   0.000  0.00  0.00    +0.000 A 
ENDBRANCH  10  18
TORSDOF 1
