REMARK  Name = OA5
REMARK  5 active torsions:
REMARK  status: ('A' for Active; 'I' for Inactive)
REMARK    1  A    between atoms: C_8  and  O_9
REMARK    2  A    between atoms: O_9  and  C_10
REMARK    3  A    between atoms: C_10  and  C_11
REMARK    4  A    between atoms: C_11  and  O_12
REMARK    5  A    between atoms: O_12  and  C_13
REMARK                            x       y       z     vdW  Elec       q    Type
REMARK                         _______ _______ _______ _____ _____    ______ ____
ROOT
ATOM      1  O   UNL     1      -1.073  -0.230   0.000  0.00  0.00    +0.000 OA
ENDROOT
BRANCH   1   9
ATOM      2  N   UNL     1      -3.932  -0.230   0.000  0.00  0.00    +0.000 NA
ATOM      3  C   UNL     1      -3.217   0.182   0.000  0.00  0.00    +0.000 A 
ATOM      4  N   UNL     1      -3.217   1.007   0.000  0.00  0.00    +0.000 NA
ATOM      5  C   UNL     1      -2.502   1.420   0.000  0.00  0.00    +0.000 A 
ATOM      6  N   UNL     1      -2.502   2.245   0.000  0.00  0.00    +0.000 NA
ATOM      7  N   UNL     1      -1.788   1.007   0.000  0.00  0.00    +0.000 NA
ATOM      8  N   UNL     1      -2.502  -0.230   0.000  0.00  0.00    +0.000 NA
ATOM      9  C   UNL     1      -1.788   0.182   0.000  0.00  0.00    +0.000 A 
ENDBRANCH   1   9
BRANCH   1  10
ATOM     10  C   UNL     1      -0.359   0.182   0.000  0.00  0.00    +0.000 C 
BRANCH  10  11
ATOM     11  C   UNL     1       0.356  -0.230   0.000  0.00  0.00    +0.000 C 
BRANCH  11  12
ATOM     12  O   UNL     1       1.070   0.182   0.000  0.00  0.00    +0.000 OA
BRANCH  12  13
ATOM     13  C   UNL     1       1.785  -0.230   0.000  0.00  0.00    +0.000 A 
ATOM     14  C   UNL     1       2.499   0.182   0.000  0.00  0.00    +0.000 A 
ATOM     15  C   UNL     1       3.214  -0.230   0.000  0.00  0.00    +0.000 A 
ATOM     16  C   UNL     1       3.214  -1.055   0.000  0.00  0.00    +0.000 A 
ATOM     17  C   UNL     1       2.499  -1.468   0.000  0.00  0.00    +0.000 A 
ATOM     18  C   UNL     1       1.785  -1.055   0.000  0.00  0.00    +0.000 A 
ENDBRANCH  12  13
ENDBRANCH  11  12
ENDBRANCH  10  11
ENDBRANCH   1  10
TORSDOF 5
