REMARK  Name = OAC
REMARK  3 active torsions:
REMARK  status: ('A' for Active; 'I' for Inactive)
REMARK    1  A    between atoms: C_2  and  C_3
REMARK    2  A    between atoms: C_3  and  C_4
REMARK    3  A    between atoms: C_4  and  C_6
REMARK                            x       y       z     vdW  Elec       q    Type
REMARK                         _______ _______ _______ _____ _____    ______ ____
ROOT
ATOM      1  C   UNL     1      -0.091  -0.435   0.000  0.00  0.00    +0.000 A 
ATOM      2  C   UNL     1      -0.091  -1.260   0.000  0.00  0.00    +0.000 A 
ATOM      3  C   UNL     1      -0.806  -1.673   0.000  0.00  0.00    +0.000 A 
ATOM      4  C   UNL     1      -1.520  -1.260   0.000  0.00  0.00    +0.000 A 
ATOM      5  C   UNL     1      -1.520  -0.435   0.000  0.00  0.00    +0.000 A 
ATOM      6  C   UNL     1      -0.806  -0.023   0.000  0.00  0.00    +0.000 A 
ATOM      7  O   UNL     1      -0.806   0.802   0.000  0.00  0.00    +0.000 OA
ENDROOT
BRANCH   1   8
ATOM      8  C   UNL     1       0.623  -0.023   0.000  0.00  0.00    +0.000 C 
BRANCH   8   9
ATOM      9  C   UNL     1       0.623   0.802   0.000  0.00  0.00    +0.000 C 
ATOM     10  C   UNL     1      -0.091   1.215   0.000  0.00  0.00    +0.000 C 
BRANCH   9  12
ATOM     11  O   UNL     1       1.338   2.040   0.000  0.00  0.00    +0.000 OA
ATOM     12  C   UNL     1       1.338   1.215   0.000  0.00  0.00    +0.000 C 
ATOM     13  O   UNL     1       2.052   0.802   0.000  0.00  0.00    +0.000 OA
ENDBRANCH   9  12
ENDBRANCH   8   9
ENDBRANCH   1   8
TORSDOF 3
