REMARK  Name = OAI
REMARK  3 active torsions:
REMARK  status: ('A' for Active; 'I' for Inactive)
REMARK    1  A    between atoms: C_3  and  N_10
REMARK    2  A    between atoms: C_4  and  C_16
REMARK    3  A    between atoms: C_11  and  C_12
REMARK                            x       y       z     vdW  Elec       q    Type
REMARK                         _______ _______ _______ _____ _____    ______ ____
ROOT
ATOM      1  C   UNL     1      -1.136   0.043   0.000  0.00  0.00    +0.000 A 
ATOM      2  C   UNL     1      -0.421   0.455   0.000  0.00  0.00    +0.000 A 
ATOM      3  C   UNL     1       0.293   0.043   0.000  0.00  0.00    +0.000 A 
ATOM      4  C   UNL     1       0.293  -0.782   0.000  0.00  0.00    +0.000 A 
ATOM      5  C   UNL     1      -0.421  -1.195   0.000  0.00  0.00    +0.000 A 
ATOM      6  C   UNL     1      -1.136  -0.782   0.000  0.00  0.00    +0.000 A 
ATOM      7  C   UNL     1      -1.921  -1.037   0.000  0.00  0.00    +0.000 A 
ATOM      8  C   UNL     1      -2.405  -0.370   0.000  0.00  0.00    +0.000 A 
ATOM      9  N   UNL     1      -1.921   0.298   0.000  0.00  0.00    +0.000 NA
ENDROOT
BRANCH   3  10
ATOM     10  N   UNL     1       1.008   0.455   0.000  0.00  0.00    +0.000 NA
ATOM     11  C   UNL     1       1.008   1.280   0.000  0.00  0.00    +0.000 C 
ATOM     12  O   UNL     1       0.293   1.693   0.000  0.00  0.00    +0.000 OA
BRANCH  11  13
ATOM     13  C   UNL     1       1.722   1.693   0.000  0.00  0.00    +0.000 C 
ATOM     14  O   UNL     1       1.722   2.518   0.000  0.00  0.00    +0.000 OA
ATOM     15  O   UNL     1       2.437   1.280   0.000  0.00  0.00    +0.000 OA
ENDBRANCH  11  13
ENDBRANCH   3  10
BRANCH   4  16
ATOM     16  C   UNL     1       1.008  -1.195   0.000  0.00  0.00    +0.000 C 
ATOM     17  O   UNL     1       1.008  -2.020   0.000  0.00  0.00    +0.000 OA
ATOM     18  O   UNL     1       1.722  -0.782   0.000  0.00  0.00    +0.000 OA
ENDBRANCH   4  16
TORSDOF 3
