REMARK  Name = OAL
REMARK  2 active torsions:
REMARK  status: ('A' for Active; 'I' for Inactive)
REMARK    1  A    between atoms: C_12  and  C_15
REMARK    2  A    between atoms: C_15  and  C_16
REMARK                            x       y       z     vdW  Elec       q    Type
REMARK                         _______ _______ _______ _____ _____    ______ ____
ROOT
ATOM      1  C   UNL     1       2.693  -0.880   0.000  0.00  0.00    +0.000 A 
ATOM      2  C   UNL     1       1.979  -1.292   0.000  0.00  0.00    +0.000 A 
ATOM      3  C   UNL     1       1.264  -0.880   0.000  0.00  0.00    +0.000 A 
ATOM      4  C   UNL     1       1.264  -0.055   0.000  0.00  0.00    +0.000 A 
ATOM      5  C   UNL     1       1.979   0.358   0.000  0.00  0.00    +0.000 A 
ATOM      6  C   UNL     1       2.693  -0.055   0.000  0.00  0.00    +0.000 A 
ATOM      7  C   UNL     1       0.550   0.358   0.000  0.00  0.00    +0.000 C 
ATOM      8  C   UNL     1      -0.165  -0.055   0.000  0.00  0.00    +0.000 A 
ATOM      9  C   UNL     1      -0.165  -0.880   0.000  0.00  0.00    +0.000 A 
ATOM     10  C   UNL     1       0.550  -1.292   0.000  0.00  0.00    +0.000 C 
ATOM     11  C   UNL     1      -0.879   0.358   0.000  0.00  0.00    +0.000 A 
ATOM     12  C   UNL     1      -1.594  -0.055   0.000  0.00  0.00    +0.000 A 
ATOM     13  C   UNL     1      -1.594  -0.880   0.000  0.00  0.00    +0.000 A 
ATOM     14  C   UNL     1      -0.879  -1.292   0.000  0.00  0.00    +0.000 A 
ATOM     15  O   UNL     1       1.979   1.183   0.000  0.00  0.00    +0.000 OA
ATOM     16  O   UNL     1       0.550   1.183   0.000  0.00  0.00    +0.000 OA
ATOM     17  O   UNL     1      -0.879   1.183   0.000  0.00  0.00    +0.000 OA
ATOM     18  O   UNL     1       0.550  -2.117   0.000  0.00  0.00    +0.000 OA
ENDROOT
BRANCH  12  19
ATOM     19  C   UNL     1      -2.308   0.358   0.000  0.00  0.00    +0.000 C 
BRANCH  19  20
ATOM     20  C   UNL     1      -2.308   1.183   0.000  0.00  0.00    +0.000 C 
ATOM     21  O   UNL     1      -3.023   1.595   0.000  0.00  0.00    +0.000 OA
ATOM     22  O   UNL     1      -1.594   1.595   0.000  0.00  0.00    +0.000 OA
ENDBRANCH  19  20
ENDBRANCH  12  19
TORSDOF 2
