REMARK  Name = OBA
REMARK  3 active torsions:
REMARK  status: ('A' for Active; 'I' for Inactive)
REMARK    1  A    between atoms: C_3  and  N_10
REMARK    2  A    between atoms: C_4  and  C_7
REMARK    3  A    between atoms: C_11  and  C_13
REMARK                            x       y       z     vdW  Elec       q    Type
REMARK                         _______ _______ _______ _____ _____    ______ ____
ROOT
ATOM      1  C   UNL     1       0.701   1.450   0.000  0.00  0.00    +0.000 A 
ATOM      2  C   UNL     1       0.701   0.625   0.000  0.00  0.00    +0.000 A 
ATOM      3  C   UNL     1      -0.013   0.213   0.000  0.00  0.00    +0.000 A 
ATOM      4  C   UNL     1      -0.728   0.625   0.000  0.00  0.00    +0.000 A 
ATOM      5  C   UNL     1      -0.728   1.450   0.000  0.00  0.00    +0.000 A 
ATOM      6  C   UNL     1      -0.013   1.863   0.000  0.00  0.00    +0.000 A 
ENDROOT
BRANCH   4   7
ATOM      7  C   UNL     1      -1.442   0.213   0.000  0.00  0.00    +0.000 C 
ATOM      8  O   UNL     1      -2.157   0.625   0.000  0.00  0.00    +0.000 OA
ATOM      9  O   UNL     1      -1.442  -0.612   0.000  0.00  0.00    +0.000 OA
ENDBRANCH   4   7
BRANCH   3  10
ATOM     10  N   UNL     1      -0.013  -0.612   0.000  0.00  0.00    +0.000 NA
ATOM     11  C   UNL     1       0.701  -1.025   0.000  0.00  0.00    +0.000 C 
ATOM     12  O   UNL     1       1.415  -0.612   0.000  0.00  0.00    +0.000 OA
BRANCH  11  13
ATOM     13  C   UNL     1       0.701  -1.850   0.000  0.00  0.00    +0.000 C 
ATOM     14  O   UNL     1       1.415  -2.262   0.000  0.00  0.00    +0.000 OA
ATOM     15  O   UNL     1      -0.013  -2.262   0.000  0.00  0.00    +0.000 OA
ENDBRANCH  11  13
ENDBRANCH   3  10
TORSDOF 3
