REMARK  Name = ODE
REMARK  8 active torsions:
REMARK  status: ('A' for Active; 'I' for Inactive)
REMARK    1  A    between atoms: C_7  and  C_8
REMARK    2  A    between atoms: C_11  and  C_12
REMARK    3  A    between atoms: C_12  and  O_14
REMARK    4  A    between atoms: O_14  and  C_15
REMARK    5  A    between atoms: C_17  and  C_18
REMARK    6  A    between atoms: C_18  and  O_20
REMARK    7  A    between atoms: O_20  and  C_21
REMARK    8  A    between atoms: C_24  and  C_25
REMARK                            x       y       z     vdW  Elec       q    Type
REMARK                         _______ _______ _______ _____ _____    ______ ____
ROOT
ATOM      1  C   UNL     1      -0.724   0.599   0.000  0.00  0.00    +0.000 C 
ATOM      2  C   UNL     1      -0.084   1.049   0.000  0.00  0.00    +0.000 C 
ATOM      3  O   UNL     1      -0.243   1.865   0.000  0.00  0.00    +0.000 OA
ATOM      4  C   UNL     1       0.712   0.584   0.000  0.00  0.00    +0.000 C 
ATOM      5  C   UNL     1       0.417  -0.041   0.000  0.00  0.00    +0.000 C 
ATOM      6  C   UNL     1      -0.314   0.329   0.000  0.00  0.00    +0.000 C 
ATOM      7  C   UNL     1      -1.089  -0.061   0.000  0.00  0.00    +0.000 C 
ENDROOT
BRANCH   1  14
ATOM      8  C   UNL     1      -1.167   1.958   0.000  0.00  0.00    +0.000 A 
ATOM      9  C   UNL     1      -1.781   2.509   0.000  0.00  0.00    +0.000 A 
ATOM     10  C   UNL     1      -2.566   2.253   0.000  0.00  0.00    +0.000 A 
ATOM     11  O   UNL     1      -3.179   2.804   0.000  0.00  0.00    +0.000 OA
ATOM     12  C   UNL     1      -2.736   1.446   0.000  0.00  0.00    +0.000 A 
ATOM     13  C   UNL     1      -2.122   0.894   0.000  0.00  0.00    +0.000 A 
ATOM     14  C   UNL     1      -1.338   1.150   0.000  0.00  0.00    +0.000 A 
ENDBRANCH   1  14
BRANCH   7  15
ATOM     15  C   UNL     1      -1.684  -0.633   0.000  0.00  0.00    +0.000 A 
ATOM     16  C   UNL     1      -2.476  -0.404   0.000  0.00  0.00    +0.000 A 
ATOM     17  C   UNL     1      -3.071  -0.976   0.000  0.00  0.00    +0.000 A 
ATOM     18  C   UNL     1      -2.873  -1.777   0.000  0.00  0.00    +0.000 A 
ATOM     19  O   UNL     1      -3.467  -2.349   0.000  0.00  0.00    +0.000 OA
ATOM     20  C   UNL     1      -2.080  -2.006   0.000  0.00  0.00    +0.000 A 
ATOM     21  C   UNL     1      -1.486  -1.434   0.000  0.00  0.00    +0.000 A 
ENDBRANCH   7  15
BRANCH   4  22
ATOM     22  C   UNL     1       1.500   0.828   0.000  0.00  0.00    +0.000 C 
ATOM     23  O   UNL     1       1.683   1.633   0.000  0.00  0.00    +0.000 OA
BRANCH  22  24
ATOM     24  O   UNL     1       2.106   0.268   0.000  0.00  0.00    +0.000 OA
BRANCH  24  25
ATOM     25  C   UNL     1       2.893   0.512   0.000  0.00  0.00    +0.000 C 
ATOM     26  C   UNL     1       3.499  -0.049   0.000  0.00  0.00    +0.000 C 
ENDBRANCH  24  25
ENDBRANCH  22  24
ENDBRANCH   4  22
BRANCH   5  27
ATOM     27  C   UNL     1       0.684  -0.822   0.000  0.00  0.00    +0.000 C 
ATOM     28  O   UNL     1       0.142  -1.444   0.000  0.00  0.00    +0.000 OA
BRANCH  27  29
ATOM     29  O   UNL     1       1.494  -0.980   0.000  0.00  0.00    +0.000 OA
BRANCH  29  30
ATOM     30  C   UNL     1       1.762  -1.760   0.000  0.00  0.00    +0.000 C 
ATOM     31  C   UNL     1       2.571  -1.919   0.000  0.00  0.00    +0.000 C 
ENDBRANCH  29  30
ENDBRANCH  27  29
ENDBRANCH   5  27
TORSDOF 8
