REMARK  Name = OEV
REMARK  9 active torsions:
REMARK  status: ('A' for Active; 'I' for Inactive)
REMARK    1  A    between atoms: C_1  and  N_2
REMARK    2  A    between atoms: N_2  and  C_13
REMARK    3  A    between atoms: C_9  and  C_10
REMARK    4  A    between atoms: C_13  and  C_14
REMARK    5  A    between atoms: C_14  and  C_15
REMARK    6  A    between atoms: C_15  and  C_16
REMARK    7  A    between atoms: C_16  and  C_17
REMARK    8  A    between atoms: C_17  and  C_18
REMARK    9  A    between atoms: C_18  and  C_19
REMARK                            x       y       z     vdW  Elec       q    Type
REMARK                         _______ _______ _______ _____ _____    ______ ____
ROOT
ATOM      1  C   UNL     1      -2.200   0.157   0.000  0.00  0.00    +0.000 C 
ATOM      2  C   UNL     1      -2.200  -0.668   0.000  0.00  0.00    +0.000 C 
ATOM      3  O   UNL     1      -1.486  -1.081   0.000  0.00  0.00    +0.000 OA
ATOM      4  C   UNL     1      -2.915  -1.081   0.000  0.00  0.00    +0.000 C 
ATOM      5  O   UNL     1      -2.915  -1.906   0.000  0.00  0.00    +0.000 OA
ATOM      6  C   UNL     1      -3.629  -0.668   0.000  0.00  0.00    +0.000 C 
ATOM      7  O   UNL     1      -4.344  -1.081   0.000  0.00  0.00    +0.000 OA
ATOM      8  C   UNL     1      -3.629   0.157   0.000  0.00  0.00    +0.000 C 
ATOM      9  C   UNL     1      -2.915   0.570   0.000  0.00  0.00    +0.000 C 
ENDROOT
BRANCH   8  10
ATOM     10  C   UNL     1      -4.344   0.570   0.000  0.00  0.00    +0.000 C 
ATOM     11  O   UNL     1      -4.344   1.395   0.000  0.00  0.00    +0.000 OA
ENDBRANCH   8  10
BRANCH   1  12
ATOM     12  N   UNL     1      -1.486   0.570   0.000  0.00  0.00    +0.000 NA
BRANCH  12  13
ATOM     13  C   UNL     1      -0.771   0.157   0.000  0.00  0.00    +0.000 C 
BRANCH  13  14
ATOM     14  C   UNL     1      -0.057   0.570   0.000  0.00  0.00    +0.000 C 
BRANCH  14  15
ATOM     15  C   UNL     1       0.658   0.157   0.000  0.00  0.00    +0.000 C 
BRANCH  15  16
ATOM     16  C   UNL     1       1.373   0.570   0.000  0.00  0.00    +0.000 C 
BRANCH  16  17
ATOM     17  C   UNL     1       2.087   0.157   0.000  0.00  0.00    +0.000 C 
BRANCH  17  18
ATOM     18  C   UNL     1       2.802   0.570   0.000  0.00  0.00    +0.000 C 
BRANCH  18  19
ATOM     19  C   UNL     1       3.516   0.157   0.000  0.00  0.00    +0.000 C 
ATOM     20  C   UNL     1       4.231   0.570   0.000  0.00  0.00    +0.000 C 
ENDBRANCH  18  19
ENDBRANCH  17  18
ENDBRANCH  16  17
ENDBRANCH  15  16
ENDBRANCH  14  15
ENDBRANCH  13  14
ENDBRANCH  12  13
ENDBRANCH   1  12
TORSDOF 9
