REMARK  Name = OFF
REMARK  12 active torsions:
REMARK  status: ('A' for Active; 'I' for Inactive)
REMARK    1  A    between atoms: C_7  and  C_8
REMARK    2  A    between atoms: C_9  and  C_10
REMARK    3  A    between atoms: C_10  and  O_12
REMARK    4  A    between atoms: O_12  and  C_13
REMARK    5  A    between atoms: C_13  and  C_14
REMARK    6  A    between atoms: C_13  and  C_18
REMARK    7  A    between atoms: C_14  and  C_15
REMARK    8  A    between atoms: C_18  and  C_19
REMARK    9  A    between atoms: C_18  and  O_22
REMARK   10  A    between atoms: O_22  and  C_23
REMARK   11  A    between atoms: C_23  and  C_25
REMARK   12  A    between atoms: C_26  and  C_27
REMARK                            x       y       z     vdW  Elec       q    Type
REMARK                         _______ _______ _______ _____ _____    ______ ____
ROOT
ATOM      1  C   UNL     1       0.656   1.318   0.000  0.00  0.00    +0.000 C 
ENDROOT
BRANCH   1   2
ATOM      2  O   UNL     1       0.243   0.603   0.000  0.00  0.00    +0.000 OA
BRANCH   2   3
ATOM      3  C   UNL     1      -0.582   0.603   0.000  0.00  0.00    +0.000 C 
ATOM      4  O   UNL     1      -0.994   1.318   0.000  0.00  0.00    +0.000 OA
BRANCH   3   6
ATOM      5  C   UNL     1      -1.819  -0.111   0.000  0.00  0.00    +0.000 C 
ATOM      6  C   UNL     1      -0.994  -0.111   0.000  0.00  0.00    +0.000 C 
BRANCH   5  13
ATOM      7  C   UNL     1      -3.057  -0.826   0.000  0.00  0.00    +0.000 A 
ATOM      8  C   UNL     1      -3.469  -1.540   0.000  0.00  0.00    +0.000 A 
ATOM      9  C   UNL     1      -3.057  -2.254   0.000  0.00  0.00    +0.000 A 
ATOM     10  O   UNL     1      -3.469  -2.969   0.000  0.00  0.00    +0.000 OA
ATOM     11  C   UNL     1      -2.232  -2.254   0.000  0.00  0.00    +0.000 A 
ATOM     12  C   UNL     1      -1.819  -1.540   0.000  0.00  0.00    +0.000 A 
ATOM     13  C   UNL     1      -2.232  -0.826   0.000  0.00  0.00    +0.000 A 
ENDBRANCH   5  13
ENDBRANCH   3   6
ENDBRANCH   2   3
ENDBRANCH   1   2
BRANCH   1  14
ATOM     14  C   UNL     1       0.243   2.032   0.000  0.00  0.00    +0.000 C 
BRANCH  14  15
ATOM     15  C   UNL     1      -0.582   2.032   0.000  0.00  0.00    +0.000 C 
ATOM     16  O   UNL     1      -0.994   2.747   0.000  0.00  0.00    +0.000 OA
ATOM     17  O   UNL     1      -1.335   1.697   0.000  0.00  0.00    +0.000 OA
ENDBRANCH  14  15
ENDBRANCH   1  14
BRANCH   1  18
ATOM     18  C   UNL     1       1.481   1.318   0.000  0.00  0.00    +0.000 C 
BRANCH  18  19
ATOM     19  C   UNL     1       1.893   0.603   0.000  0.00  0.00    +0.000 C 
ATOM     20  O   UNL     1       1.481  -0.111   0.000  0.00  0.00    +0.000 OA
ATOM     21  O   UNL     1       2.718   0.603   0.000  0.00  0.00    +0.000 OA
ENDBRANCH  18  19
BRANCH  18  22
ATOM     22  O   UNL     1       1.893   2.032   0.000  0.00  0.00    +0.000 OA
BRANCH  22  23
ATOM     23  C   UNL     1       2.718   2.032   0.000  0.00  0.00    +0.000 C 
ATOM     24  O   UNL     1       3.131   1.318   0.000  0.00  0.00    +0.000 OA
BRANCH  23  25
ATOM     25  C   UNL     1       3.131   2.747   0.000  0.00  0.00    +0.000 C 
ATOM     26  C   UNL     1       3.956   2.747   0.000  0.00  0.00    +0.000 C 
BRANCH  26  27
ATOM     27  C   UNL     1       4.368   3.461   0.000  0.00  0.00    +0.000 A 
ATOM     28  C   UNL     1       5.193   3.461   0.000  0.00  0.00    +0.000 A 
ATOM     29  C   UNL     1       5.606   4.176   0.000  0.00  0.00    +0.000 A 
ATOM     30  C   UNL     1       5.193   4.890   0.000  0.00  0.00    +0.000 A 
ATOM     31  O   UNL     1       5.606   5.605   0.000  0.00  0.00    +0.000 OA
ATOM     32  C   UNL     1       4.368   4.890   0.000  0.00  0.00    +0.000 A 
ATOM     33  C   UNL     1       3.956   4.176   0.000  0.00  0.00    +0.000 A 
ENDBRANCH  26  27
ENDBRANCH  23  25
ENDBRANCH  22  23
ENDBRANCH  18  22
ENDBRANCH   1  18
TORSDOF 12
