REMARK  Name = OFL
REMARK  4 active torsions:
REMARK  status: ('A' for Active; 'I' for Inactive)
REMARK    1  A    between atoms: C_3  and  N_8
REMARK    2  A    between atoms: C_4  and  C_7
REMARK    3  A    between atoms: N_8  and  C_13
REMARK    4  A    between atoms: C_12  and  C_15
REMARK                            x       y       z     vdW  Elec       q    Type
REMARK                         _______ _______ _______ _____ _____    ______ ____
ROOT
ATOM      1  C   UNL     1      -1.672   1.296   0.000  0.00  0.00    +0.000 A 
ATOM      2  C   UNL     1      -0.957   0.883   0.000  0.00  0.00    +0.000 A 
ATOM      3  C   UNL     1      -0.957   0.058   0.000  0.00  0.00    +0.000 A 
ATOM      4  C   UNL     1      -1.672  -0.354   0.000  0.00  0.00    +0.000 A 
ATOM      5  C   UNL     1      -2.386   0.058   0.000  0.00  0.00    +0.000 A 
ATOM      6  C   UNL     1      -2.386   0.883   0.000  0.00  0.00    +0.000 A 
ENDROOT
BRANCH   4   7
ATOM      7  C   UNL     1      -1.672  -1.179   0.000  0.00  0.00    +0.000 C 
ATOM      8  F   UNL     1      -1.672  -2.004   0.000  0.00  0.00    +0.000 F 
ATOM      9  F   UNL     1      -2.497  -1.179   0.000  0.00  0.00    +0.000 F 
ATOM     10  F   UNL     1      -0.847  -1.179   0.000  0.00  0.00    +0.000 F 
ENDBRANCH   4   7
BRANCH   3  11
ATOM     11  N   UNL     1      -0.243  -0.354   0.000  0.00  0.00    +0.000 NA
BRANCH  11  16
ATOM     12  C   UNL     1       1.186   1.296   0.000  0.00  0.00    +0.000 A 
ATOM     13  C   UNL     1       1.901   0.883   0.000  0.00  0.00    +0.000 A 
ATOM     14  C   UNL     1       1.901   0.058   0.000  0.00  0.00    +0.000 A 
ATOM     15  C   UNL     1       1.186  -0.354   0.000  0.00  0.00    +0.000 A 
ATOM     16  C   UNL     1       0.472   0.058   0.000  0.00  0.00    +0.000 A 
ATOM     17  C   UNL     1       0.472   0.883   0.000  0.00  0.00    +0.000 A 
BRANCH  15  18
ATOM     18  C   UNL     1       1.186  -1.179   0.000  0.00  0.00    +0.000 C 
ATOM     19  O   UNL     1       0.472  -1.592   0.000  0.00  0.00    +0.000 OA
ATOM     20  O   UNL     1       1.901  -1.592   0.000  0.00  0.00    +0.000 OA
ENDBRANCH  15  18
ENDBRANCH  11  16
ENDBRANCH   3  11
TORSDOF 4
