REMARK  Name = OIR
REMARK  9 active torsions:
REMARK  status: ('A' for Active; 'I' for Inactive)
REMARK    1  A    between atoms: C_2  and  C_3
REMARK    2  A    between atoms: C_3  and  C_4
REMARK    3  A    between atoms: C_4  and  C_5
REMARK    4  A    between atoms: N_12  and  CA_13
REMARK    5  A    between atoms: CA_13  and  C_14
REMARK    6  A    between atoms: CA_13  and  CB_22
REMARK    7  A    between atoms: N_16  and  CA_17
REMARK    8  A    between atoms: CA_17  and  C_18
REMARK    9  A    between atoms: CB_22  and  CG_23
REMARK                            x       y       z     vdW  Elec       q    Type
REMARK                         _______ _______ _______ _____ _____    ______ ____
ROOT
ATOM      1  CA  PHE A   1       0.497   0.150   0.000  0.00  0.00    +0.000 C 
ENDROOT
BRANCH   1   4
ATOM      2  O   UNK A   0      -0.932  -0.675   0.000  0.00  0.00    +0.000 OA
ATOM      3  C   UNK A   0      -0.932   0.150   0.000  0.00  0.00    +0.000 C 
ATOM      4  N   PHE A   1      -0.217   0.563   0.000  0.00  0.00    +0.000 NA
BRANCH   3   5
ATOM      5  C   UNK A   0      -1.646   0.563   0.000  0.00  0.00    +0.000 C 
ATOM      6  S   UNK A   0      -1.646   1.388   0.000  0.00  0.00    +0.000 S 
BRANCH   5   7
ATOM      7  C   UNK A   0      -2.361   0.150   0.000  0.00  0.00    +0.000 C 
BRANCH   7   8
ATOM      8  C   UNK A   0      -3.075   0.563   0.000  0.00  0.00    +0.000 A 
ATOM      9  C   UNK A   0      -3.790   0.150   0.000  0.00  0.00    +0.000 A 
ATOM     10  C   UNK A   0      -4.504   0.563   0.000  0.00  0.00    +0.000 A 
ATOM     11  C   UNK A   0      -4.504   1.388   0.000  0.00  0.00    +0.000 A 
ATOM     12  C   UNK A   0      -3.790   1.800   0.000  0.00  0.00    +0.000 A 
ATOM     13  C   UNK A   0      -3.075   1.388   0.000  0.00  0.00    +0.000 A 
ENDBRANCH   7   8
ENDBRANCH   5   7
ENDBRANCH   3   5
ENDBRANCH   1   4
BRANCH   1  14
ATOM     14  C   PHE A   1       1.212   0.563   0.000  0.00  0.00    +0.000 C 
ATOM     15  O   PHE A   1       1.212   1.388   0.000  0.00  0.00    +0.000 OA
ATOM     16  N   ALA A   2       1.926   0.150   0.000  0.00  0.00    +0.000 NA
BRANCH  16  17
ATOM     17  CA  ALA A   2       2.640   0.563   0.000  0.00  0.00    +0.000 C 
ATOM     18  CB  ALA A   2       2.640   1.388   0.000  0.00  0.00    +0.000 C 
BRANCH  17  19
ATOM     19  C   ALA A   2       3.355   0.150   0.000  0.00  0.00    +0.000 C 
ATOM     20  O   ALA A   2       4.069   0.563   0.000  0.00  0.00    +0.000 OA
ATOM     21  OXT ALA A   2       3.355  -0.675   0.000  0.00  0.00    +0.000 OA
ENDBRANCH  17  19
ENDBRANCH  16  17
ENDBRANCH   1  14
BRANCH   1  22
ATOM     22  CB  PHE A   1       0.497  -0.675   0.000  0.00  0.00    +0.000 C 
BRANCH  22  23
ATOM     23  CG  PHE A   1       1.212  -1.087   0.000  0.00  0.00    +0.000 A 
ATOM     24  CD1 PHE A   1       1.926  -0.675   0.000  0.00  0.00    +0.000 A 
ATOM     25  CE1 PHE A   1       2.640  -1.087   0.000  0.00  0.00    +0.000 A 
ATOM     26  CZ  PHE A   1       2.640  -1.912   0.000  0.00  0.00    +0.000 A 
ATOM     27  CE2 PHE A   1       1.926  -2.325   0.000  0.00  0.00    +0.000 A 
ATOM     28  CD2 PHE A   1       1.212  -1.912   0.000  0.00  0.00    +0.000 A 
ENDBRANCH  22  23
ENDBRANCH   1  22
TORSDOF 9
