REMARK  Name = OLO
REMARK  4 active torsions:
REMARK  status: ('A' for Active; 'I' for Inactive)
REMARK    1  A    between atoms: N_11  and  C_12
REMARK    2  A    between atoms: C_12  and  C_13
REMARK    3  A    between atoms: N_15  and  C_16
REMARK    4  A    between atoms: C_16  and  C_22
REMARK                            x       y       z     vdW  Elec       q    Type
REMARK                         _______ _______ _______ _____ _____    ______ ____
ROOT
ATOM      1  N   UNL     1      -1.963   1.312   0.000  0.00  0.00    +0.000 N 
ATOM      2  C   UNL     1      -2.448   0.644   0.000  0.00  0.00    +0.000 A 
ATOM      3  N   UNL     1      -1.963  -0.023   0.000  0.00  0.00    +0.000 NA
ATOM      4  C   UNL     1      -1.178   0.232   0.000  0.00  0.00    +0.000 A 
ATOM      5  C   UNL     1      -1.178   1.057   0.000  0.00  0.00    +0.000 A 
ATOM      6  C   UNL     1      -0.464  -0.181   0.000  0.00  0.00    +0.000 A 
ATOM      7  N   UNL     1       0.251   0.232   0.000  0.00  0.00    +0.000 NA
ATOM      8  C   UNL     1       0.251   1.057   0.000  0.00  0.00    +0.000 A 
ATOM      9  N   UNL     1      -0.464   1.469   0.000  0.00  0.00    +0.000 NA
ATOM     10  C   UNL     1      -2.218   2.096   0.000  0.00  0.00    +0.000 C 
ATOM     11  N   UNL     1       0.965   1.469   0.000  0.00  0.00    +0.000 NA
ATOM     12  N   UNL     1      -0.464  -1.006   0.000  0.00  0.00    +0.000 NA
ENDROOT
BRANCH  11  13
ATOM     13  C   UNL     1       0.965   2.294   0.000  0.00  0.00    +0.000 C 
BRANCH  13  14
ATOM     14  C   UNL     1       1.680   2.707   0.000  0.00  0.00    +0.000 C 
ATOM     15  O   UNL     1       1.680   3.532   0.000  0.00  0.00    +0.000 OA
ENDBRANCH  13  14
ENDBRANCH  11  13
BRANCH  12  16
ATOM     16  C   UNL     1       0.251  -1.418   0.000  0.00  0.00    +0.000 C 
BRANCH  16  22
ATOM     17  C   UNL     1       0.965  -2.656   0.000  0.00  0.00    +0.000 A 
ATOM     18  C   UNL     1       0.965  -3.481   0.000  0.00  0.00    +0.000 A 
ATOM     19  C   UNL     1       0.251  -3.893   0.000  0.00  0.00    +0.000 A 
ATOM     20  C   UNL     1      -0.464  -3.481   0.000  0.00  0.00    +0.000 A 
ATOM     21  C   UNL     1      -0.464  -2.656   0.000  0.00  0.00    +0.000 A 
ATOM     22  C   UNL     1       0.251  -2.243   0.000  0.00  0.00    +0.000 A 
ENDBRANCH  16  22
ENDBRANCH  12  16
TORSDOF 4
