REMARK  Name = OLU
REMARK  1 active torsions:
REMARK  status: ('A' for Active; 'I' for Inactive)
REMARK    1  A    between atoms: C_4  and  C_7
REMARK                            x       y       z     vdW  Elec       q    Type
REMARK                         _______ _______ _______ _____ _____    ______ ____
ROOT
ATOM      1  C   UNL     1      -0.288   0.095   0.000  0.00  0.00    +0.000 A 
ATOM      2  S   UNL     1       0.197   0.762   0.000  0.00  0.00    +0.000 S 
ATOM      3  C   UNL     1       0.982   0.507   0.000  0.00  0.00    +0.000 A 
ATOM      4  C   UNL     1       1.696   0.920   0.000  0.00  0.00    +0.000 A 
ATOM      5  C   UNL     1       0.982  -0.318   0.000  0.00  0.00    +0.000 A 
ATOM      6  N   UNL     1       0.197  -0.573   0.000  0.00  0.00    +0.000 NA
ATOM      7  C   UNL     1       1.696  -0.730   0.000  0.00  0.00    +0.000 A 
ATOM      8  C   UNL     1       2.410  -0.318   0.000  0.00  0.00    +0.000 A 
ATOM      9  C   UNL     1       2.410   0.507   0.000  0.00  0.00    +0.000 A 
ATOM     10  O   UNL     1       3.125   0.920   0.000  0.00  0.00    +0.000 OA
ENDROOT
BRANCH   1  14
ATOM     11  O   UNL     1      -3.050   0.992   0.000  0.00  0.00    +0.000 OA
ATOM     12  C   UNL     1      -2.383   0.507   0.000  0.00  0.00    +0.000 C 
ATOM     13  N   UNL     1      -1.598   0.762   0.000  0.00  0.00    +0.000 NA
ATOM     14  C   UNL     1      -1.113   0.095   0.000  0.00  0.00    +0.000 C 
ATOM     15  S   UNL     1      -1.598  -0.573   0.000  0.00  0.00    +0.000 S 
ATOM     16  C   UNL     1      -2.383  -0.318   0.000  0.00  0.00    +0.000 C 
ENDBRANCH   1  14
TORSDOF 1
