REMARK  Name = OPA
REMARK  3 active torsions:
REMARK  status: ('A' for Active; 'I' for Inactive)
REMARK    1  A    between atoms: C_8  and  N_13
REMARK    2  A    between atoms: C_9  and  C_10
REMARK    3  A    between atoms: C_14  and  C_15
REMARK                            x       y       z     vdW  Elec       q    Type
REMARK                         _______ _______ _______ _____ _____    ______ ____
ROOT
ATOM      1  O   UNL     1       2.293  -0.590   0.000  0.00  0.00    +0.000 OA
ATOM      2  C   UNL     1       1.579  -1.002   0.000  0.00  0.00    +0.000 C 
ATOM      3  C   UNL     1       0.864  -0.590   0.000  0.00  0.00    +0.000 A 
ATOM      4  C   UNL     1       0.864   0.235   0.000  0.00  0.00    +0.000 A 
ATOM      5  C   UNL     1       1.579   0.648   0.000  0.00  0.00    +0.000 C 
ATOM      6  C   UNL     1       2.293   0.235   0.000  0.00  0.00    +0.000 C 
ATOM      7  S   UNL     1       0.080  -0.845   0.000  0.00  0.00    +0.000 S 
ATOM      8  C   UNL     1      -0.405  -0.177   0.000  0.00  0.00    +0.000 A 
ATOM      9  C   UNL     1       0.080   0.490   0.000  0.00  0.00    +0.000 A 
ENDROOT
BRANCH   9  10
ATOM     10  C   UNL     1      -0.175   1.275   0.000  0.00  0.00    +0.000 C 
ATOM     11  O   UNL     1      -0.982   1.447   0.000  0.00  0.00    +0.000 OA
ATOM     12  O   UNL     1       0.377   1.888   0.000  0.00  0.00    +0.000 OA
ENDBRANCH   9  10
BRANCH   8  13
ATOM     13  N   UNL     1      -1.230  -0.177   0.000  0.00  0.00    +0.000 NA
ATOM     14  C   UNL     1      -1.643  -0.891   0.000  0.00  0.00    +0.000 C 
ATOM     15  O   UNL     1      -1.230  -1.606   0.000  0.00  0.00    +0.000 OA
BRANCH  14  16
ATOM     16  C   UNL     1      -2.468  -0.891   0.000  0.00  0.00    +0.000 C 
ATOM     17  O   UNL     1      -2.880  -1.606   0.000  0.00  0.00    +0.000 OA
ATOM     18  O   UNL     1      -2.880  -0.177   0.000  0.00  0.00    +0.000 OA
ENDBRANCH  14  16
ENDBRANCH   8  13
TORSDOF 3
