REMARK  Name = OPI
REMARK  11 active torsions:
REMARK  status: ('A' for Active; 'I' for Inactive)
REMARK    1  A    between atoms: C_2  and  C_3
REMARK    2  A    between atoms: C_3  and  N_4
REMARK    3  A    between atoms: C_5  and  C_7
REMARK    4  A    between atoms: C_7  and  C_8
REMARK    5  A    between atoms: C_8  and  N_9
REMARK    6  A    between atoms: C_10  and  C_12
REMARK    7  A    between atoms: C_12  and  C_14
REMARK    8  A    between atoms: C_14  and  C_17
REMARK    9  A    between atoms: C_17  and  O_18
REMARK   10  A    between atoms: O_18  and  C_19
REMARK   11  A    between atoms: C_19  and  C_21
REMARK                            x       y       z     vdW  Elec       q    Type
REMARK                         _______ _______ _______ _____ _____    ______ ____
ROOT
ATOM      1  C   UNL     1       0.075   0.448   0.000  0.00  0.00    +0.000 C 
ATOM      2  O   UNL     1       0.075   1.272   0.000  0.00  0.00    +0.000 OA
ENDROOT
BRANCH   1   3
ATOM      3  C   UNL     1       0.790   0.035   0.000  0.00  0.00    +0.000 C 
ATOM      4  C   UNL     1       0.378  -0.679   0.000  0.00  0.00    +0.000 C 
ATOM      5  C   UNL     1       1.202   0.750   0.000  0.00  0.00    +0.000 C 
BRANCH   3   6
ATOM      6  C   UNL     1       1.504  -0.378   0.000  0.00  0.00    +0.000 C 
BRANCH   6   7
ATOM      7  O   UNL     1       2.219   0.035   0.000  0.00  0.00    +0.000 OA
BRANCH   7   8
ATOM      8  C   UNL     1       2.933  -0.378   0.000  0.00  0.00    +0.000 C 
ATOM      9  O   UNL     1       2.933  -1.202   0.000  0.00  0.00    +0.000 OA
BRANCH   8  10
ATOM     10  C   UNL     1       3.648   0.035   0.000  0.00  0.00    +0.000 C 
ATOM     11  C   UNL     1       4.362   0.448   0.000  0.00  0.00    +0.000 C 
ATOM     12  C   UNL     1       4.060  -0.679   0.000  0.00  0.00    +0.000 C 
ATOM     13  C   UNL     1       3.235   0.750   0.000  0.00  0.00    +0.000 C 
ENDBRANCH   8  10
ENDBRANCH   7   8
ENDBRANCH   6   7
ENDBRANCH   3   6
ENDBRANCH   1   3
BRANCH   1  15
ATOM     14  N   UNL     1      -1.353   0.448   0.000  0.00  0.00    +0.000 NA
ATOM     15  C   UNL     1      -0.639   0.035   0.000  0.00  0.00    +0.000 C 
ATOM     16  O   UNL     1      -0.639  -0.790   0.000  0.00  0.00    +0.000 OA
BRANCH  14  17
ATOM     17  C   UNL     1      -2.068   0.035   0.000  0.00  0.00    +0.000 C 
BRANCH  17  18
ATOM     18  C   UNL     1      -2.782   0.448   0.000  0.00  0.00    +0.000 C 
BRANCH  18  20
ATOM     19  N   UNL     1      -4.211   0.448   0.000  0.00  0.00    +0.000 NA
ATOM     20  C   UNL     1      -3.497   0.035   0.000  0.00  0.00    +0.000 C 
ATOM     21  O   UNL     1      -3.497  -0.790   0.000  0.00  0.00    +0.000 OA
BRANCH  19  22
ATOM     22  C   UNL     1      -4.926   0.035   0.000  0.00  0.00    +0.000 C 
BRANCH  22  24
ATOM     23  O   UNL     1      -6.355   0.035   0.000  0.00  0.00    +0.000 OA
ATOM     24  C   UNL     1      -5.640   0.448   0.000  0.00  0.00    +0.000 C 
ENDBRANCH  22  24
ENDBRANCH  19  22
ENDBRANCH  18  20
ENDBRANCH  17  18
ENDBRANCH  14  17
ENDBRANCH   1  15
TORSDOF 11
