REMARK  Name = OSB
REMARK  5 active torsions:
REMARK  status: ('A' for Active; 'I' for Inactive)
REMARK    1  A    between atoms: C_3  and  C_8
REMARK    2  A    between atoms: C_9  and  C_10
REMARK    3  A    between atoms: C_10  and  C_11
REMARK    4  A    between atoms: C_11  and  C_13
REMARK    5  A    between atoms: C_13  and  C_14
REMARK                            x       y       z     vdW  Elec       q    Type
REMARK                         _______ _______ _______ _____ _____    ______ ____
ROOT
ATOM      1  C   UNL     1      -0.348  -0.863   0.000  0.00  0.00    +0.000 A 
ATOM      2  C   UNL     1      -1.063  -1.276   0.000  0.00  0.00    +0.000 A 
ATOM      3  C   UNL     1      -1.777  -0.863   0.000  0.00  0.00    +0.000 A 
ATOM      4  C   UNL     1      -1.777  -0.038   0.000  0.00  0.00    +0.000 A 
ATOM      5  C   UNL     1      -1.063   0.374   0.000  0.00  0.00    +0.000 A 
ATOM      6  C   UNL     1      -0.348  -0.038   0.000  0.00  0.00    +0.000 A 
ENDROOT
BRANCH   5   9
ATOM      7  O   UNL     1      -1.777   1.612   0.000  0.00  0.00    +0.000 OA
ATOM      8  O   UNL     1      -0.348   1.612   0.000  0.00  0.00    +0.000 OA
ATOM      9  C   UNL     1      -1.063   1.199   0.000  0.00  0.00    +0.000 C 
ENDBRANCH   5   9
BRANCH   6  10
ATOM     10  C   UNL     1       0.366   0.374   0.000  0.00  0.00    +0.000 C 
ATOM     11  O   UNL     1       0.366   1.199   0.000  0.00  0.00    +0.000 OA
BRANCH  10  12
ATOM     12  C   UNL     1       1.081  -0.038   0.000  0.00  0.00    +0.000 C 
BRANCH  12  13
ATOM     13  C   UNL     1       1.795   0.374   0.000  0.00  0.00    +0.000 C 
BRANCH  13  14
ATOM     14  C   UNL     1       2.510  -0.038   0.000  0.00  0.00    +0.000 C 
ATOM     15  O   UNL     1       3.224   0.374   0.000  0.00  0.00    +0.000 OA
ATOM     16  O   UNL     1       2.510  -0.863   0.000  0.00  0.00    +0.000 OA
ENDBRANCH  13  14
ENDBRANCH  12  13
ENDBRANCH  10  12
ENDBRANCH   6  10
TORSDOF 5
