REMARK  Name = OST
REMARK  6 active torsions:
REMARK  status: ('A' for Active; 'I' for Inactive)
REMARK    1  A    between atoms: O_2  and  C_3
REMARK    2  A    between atoms: C_3  and  C_5
REMARK    3  A    between atoms: C_5  and  C_9
REMARK    4  A    between atoms: C_6  and  O_7
REMARK    5  A    between atoms: C_11  and  C_15
REMARK    6  A    between atoms: C_16  and  C_17
REMARK                            x       y       z     vdW  Elec       q    Type
REMARK                         _______ _______ _______ _____ _____    ______ ____
ROOT
ATOM      1  C   UNL     1       1.044  -0.469   0.000  0.00  0.00    +0.000 A 
ATOM      2  C   UNL     1       1.758  -0.881   0.000  0.00  0.00    +0.000 A 
ATOM      3  C   UNL     1       0.329  -0.881   0.000  0.00  0.00    +0.000 A 
ATOM      4  C   UNL     1       0.329  -1.706   0.000  0.00  0.00    +0.000 A 
ATOM      5  C   UNL     1       1.044  -2.119   0.000  0.00  0.00    +0.000 A 
ATOM      6  C   UNL     1       1.758  -1.706   0.000  0.00  0.00    +0.000 A 
ENDROOT
BRANCH   1   7
ATOM      7  C   UNL     1       1.044   0.356   0.000  0.00  0.00    +0.000 C 
ATOM      8  C   UNL     1       1.758   0.768   0.000  0.00  0.00    +0.000 C 
BRANCH   7   9
ATOM      9  C   UNL     1       0.329   0.768   0.000  0.00  0.00    +0.000 C 
ATOM     10  O   UNL     1      -0.385   0.356   0.000  0.00  0.00    +0.000 OA
BRANCH   9  12
ATOM     11  C   UNL     1      -0.385   2.006   0.000  0.00  0.00    +0.000 C 
ATOM     12  O   UNL     1       0.329   1.593   0.000  0.00  0.00    +0.000 OA
ENDBRANCH   9  12
ENDBRANCH   7   9
BRANCH   8  13
ATOM     13  O   UNL     1       2.473   0.356   0.000  0.00  0.00    +0.000 OA
ATOM     14  C   UNL     1       3.187   0.768   0.000  0.00  0.00    +0.000 C 
ENDBRANCH   8  13
ENDBRANCH   1   7
BRANCH   3  15
ATOM     15  C   UNL     1      -0.385  -0.469   0.000  0.00  0.00    +0.000 C 
ATOM     16  C   UNL     1      -1.100  -0.881   0.000  0.00  0.00    +0.000 C 
BRANCH  16  17
ATOM     17  C   UNL     1      -1.814  -0.469   0.000  0.00  0.00    +0.000 A 
ATOM     18  C   UNL     1      -2.529  -0.881   0.000  0.00  0.00    +0.000 A 
ATOM     19  C   UNL     1      -3.243  -0.469   0.000  0.00  0.00    +0.000 A 
ATOM     20  C   UNL     1      -1.814   0.356   0.000  0.00  0.00    +0.000 A 
ATOM     21  C   UNL     1      -2.529   0.768   0.000  0.00  0.00    +0.000 A 
ATOM     22  C   UNL     1      -3.243   0.356   0.000  0.00  0.00    +0.000 A 
ENDBRANCH  16  17
ENDBRANCH   3  15
TORSDOF 6
