REMARK  Name = OVA
REMARK  4 active torsions:
REMARK  status: ('A' for Active; 'I' for Inactive)
REMARK    1  A    between atoms: C_3  and  O_18
REMARK    2  A    between atoms: C_4  and  C_9
REMARK    3  A    between atoms: C_10  and  C_11
REMARK    4  A    between atoms: C_11  and  C_12
REMARK                            x       y       z     vdW  Elec       q    Type
REMARK                         _______ _______ _______ _____ _____    ______ ____
ROOT
ATOM      1  C   UNL     1      -1.647   2.027   0.000  0.00  0.00    +0.000 C 
ATOM      2  C   UNL     1      -0.831   1.912   0.000  0.00  0.00    +0.000 C 
ATOM      3  C   UNL     1      -0.521   1.147   0.000  0.00  0.00    +0.000 C 
ATOM      4  C   UNL     1      -1.029   0.497   0.000  0.00  0.00    +0.000 C 
ATOM      5  C   UNL     1      -1.846   0.612   0.000  0.00  0.00    +0.000 C 
ATOM      6  C   UNL     1      -2.155   1.377   0.000  0.00  0.00    +0.000 C 
ATOM      7  O   UNL     1      -1.990  -0.200   0.000  0.00  0.00    +0.000 OA
ATOM      8  C   UNL     1      -2.600   0.277   0.000  0.00  0.00    +0.000 C 
ATOM      9  O   UNL     1      -0.323   2.562   0.000  0.00  0.00    +0.000 OA
ATOM     10  O   UNL     1      -1.116  -0.323   0.000  0.00  0.00    +0.000 OA
ENDROOT
BRANCH   4  11
ATOM     11  C   UNL     1      -0.397  -0.033   0.000  0.00  0.00    +0.000 C 
ATOM     12  C   UNL     1       0.015  -0.748   0.000  0.00  0.00    +0.000 C 
ATOM     13  C   UNL     1       0.235   0.497   0.000  0.00  0.00    +0.000 C 
ATOM     14  O   UNL     1      -0.810  -0.748   0.000  0.00  0.00    +0.000 OA
BRANCH  12  15
ATOM     15  C   UNL     1       0.730  -1.160   0.000  0.00  0.00    +0.000 C 
BRANCH  15  16
ATOM     16  C   UNL     1       1.444  -0.748   0.000  0.00  0.00    +0.000 C 
ATOM     17  C   UNL     1       2.159  -1.160   0.000  0.00  0.00    +0.000 C 
ATOM     18  C   UNL     1       2.873  -0.748   0.000  0.00  0.00    +0.000 C 
ATOM     19  C   UNL     1       2.159  -1.985   0.000  0.00  0.00    +0.000 C 
ENDBRANCH  15  16
ENDBRANCH  12  15
ENDBRANCH   4  11
BRANCH   3  20
ATOM     20  O   UNL     1       0.295   1.032   0.000  0.00  0.00    +0.000 OA
ATOM     21  C   UNL     1       0.605   0.268   0.000  0.00  0.00    +0.000 C 
ENDBRANCH   3  20
TORSDOF 4
