REMARK  Name = OWL
REMARK  4 active torsions:
REMARK  status: ('A' for Active; 'I' for Inactive)
REMARK    1  A    between atoms: C_1  and  N_20
REMARK    2  A    between atoms: C_2  and  N_13
REMARK    3  A    between atoms: C_9  and  N_13
REMARK    4  A    between atoms: C_11  and  N_21
REMARK                            x       y       z     vdW  Elec       q    Type
REMARK                         _______ _______ _______ _____ _____    ______ ____
ROOT
ATOM      1  N   UNL     1      -1.254  -0.461   0.000  0.00  0.00    +0.000 NA
ENDROOT
BRANCH   1   3
ATOM      2  C   UNL     1      -1.254   2.014   0.000  0.00  0.00    +0.000 A 
ATOM      3  C   UNL     1      -1.254   0.364   0.000  0.00  0.00    +0.000 A 
ATOM      4  C   UNL     1      -0.540   1.601   0.000  0.00  0.00    +0.000 A 
ATOM      5  C   UNL     1      -1.969   1.601   0.000  0.00  0.00    +0.000 A 
ATOM      6  C   UNL     1      -1.969   0.776   0.000  0.00  0.00    +0.000 A 
ATOM      7  C   UNL     1      -0.540   0.776   0.000  0.00  0.00    +0.000 A 
BRANCH   2  11
ATOM      8  C   UNL     1      -0.540   3.251   0.000  0.00  0.00    +0.000 A 
ATOM      9  N   UNL     1      -0.453   4.072   0.000  0.00  0.00    +0.000 NA
ATOM     10  N   UNL     1       0.214   2.916   0.000  0.00  0.00    +0.000 NA
ATOM     11  N   UNL     1      -1.254   2.839   0.000  0.00  0.00    +0.000 NA
ATOM     12  C   UNL     1       0.354   4.243   0.000  0.00  0.00    +0.000 A 
ATOM     13  C   UNL     1       0.766   3.529   0.000  0.00  0.00    +0.000 A 
ENDBRANCH   2  11
ENDBRANCH   1   3
BRANCH   1  16
ATOM     14  C   UNL     1       0.175  -0.461   0.000  0.00  0.00    +0.000 A 
ATOM     15  C   UNL     1       0.175  -2.111   0.000  0.00  0.00    +0.000 A 
ATOM     16  C   UNL     1      -0.540  -0.874   0.000  0.00  0.00    +0.000 A 
ATOM     17  C   UNL     1       0.889  -0.874   0.000  0.00  0.00    +0.000 A 
ATOM     18  C   UNL     1       0.889  -1.699   0.000  0.00  0.00    +0.000 A 
ATOM     19  C   UNL     1      -0.540  -1.699   0.000  0.00  0.00    +0.000 A 
BRANCH  18  23
ATOM     20  C   UNL     1       1.604  -2.936   0.000  0.00  0.00    +0.000 A 
ATOM     21  N   UNL     1       0.936  -3.421   0.000  0.00  0.00    +0.000 NA
ATOM     22  N   UNL     1       2.271  -3.421   0.000  0.00  0.00    +0.000 NA
ATOM     23  N   UNL     1       1.604  -2.111   0.000  0.00  0.00    +0.000 NA
ATOM     24  C   UNL     1       1.191  -4.206   0.000  0.00  0.00    +0.000 A 
ATOM     25  C   UNL     1       2.016  -4.206   0.000  0.00  0.00    +0.000 A 
ENDBRANCH  18  23
ENDBRANCH   1  16
TORSDOF 4
