REMARK  Name = OX3
REMARK  4 active torsions:
REMARK  status: ('A' for Active; 'I' for Inactive)
REMARK    1  A    between atoms: C_5  and  C_8
REMARK    2  A    between atoms: N_9  and  O_10
REMARK    3  A    between atoms: O_10  and  C_11
REMARK    4  A    between atoms: C_11  and  C_13
REMARK                            x       y       z     vdW  Elec       q    Type
REMARK                         _______ _______ _______ _____ _____    ______ ____
ROOT
ATOM      1  C   UNL     1      -0.842   1.728   0.000  0.00  0.00    +0.000 C 
ATOM      2  N   UNL     1      -1.557   1.316   0.000  0.00  0.00    +0.000 NA
ENDROOT
BRANCH   1   7
ATOM      3  C   UNL     1      -0.842   4.203   0.000  0.00  0.00    +0.000 A 
ATOM      4  O   UNL     1      -0.842   5.028   0.000  0.00  0.00    +0.000 OA
ATOM      5  C   UNL     1      -1.557   3.791   0.000  0.00  0.00    +0.000 A 
ATOM      6  C   UNL     1      -1.557   2.966   0.000  0.00  0.00    +0.000 A 
ATOM      7  C   UNL     1      -0.842   2.553   0.000  0.00  0.00    +0.000 A 
ATOM      8  C   UNL     1      -0.128   2.966   0.000  0.00  0.00    +0.000 A 
ATOM      9  C   UNL     1      -0.128   3.791   0.000  0.00  0.00    +0.000 A 
ENDBRANCH   1   7
BRANCH   2  10
ATOM     10  O   UNL     1      -1.557   0.491   0.000  0.00  0.00    +0.000 OA
BRANCH  10  11
ATOM     11  C   UNL     1      -0.842   0.078   0.000  0.00  0.00    +0.000 C 
ATOM     12  O   UNL     1      -0.128   0.491   0.000  0.00  0.00    +0.000 OA
BRANCH  11  13
ATOM     13  C   UNL     1      -0.842  -0.747   0.000  0.00  0.00    +0.000 C 
ATOM     14  C   UNL     1      -0.128  -1.159   0.000  0.00  0.00    +0.000 C 
ATOM     15  C   UNL     1      -0.128  -1.984   0.000  0.00  0.00    +0.000 C 
ATOM     16  C   UNL     1      -0.842  -2.397   0.000  0.00  0.00    +0.000 C 
ATOM     17  C   UNL     1      -1.557  -1.984   0.000  0.00  0.00    +0.000 C 
ATOM     18  C   UNL     1      -1.557  -1.159   0.000  0.00  0.00    +0.000 C 
ENDBRANCH  11  13
ENDBRANCH  10  11
ENDBRANCH   2  10
TORSDOF 4
