REMARK  Name = OX4
REMARK  4 active torsions:
REMARK  status: ('A' for Active; 'I' for Inactive)
REMARK    1  A    between atoms: C_6  and  C_9
REMARK    2  A    between atoms: N_10  and  O_11
REMARK    3  A    between atoms: O_11  and  C_12
REMARK    4  A    between atoms: C_12  and  C_14
REMARK                            x       y       z     vdW  Elec       q    Type
REMARK                         _______ _______ _______ _____ _____    ______ ____
ROOT
ATOM      1  C   UNL     1      -0.823   1.737   0.000  0.00  0.00    +0.000 C 
ATOM      2  N   UNL     1      -1.537   1.325   0.000  0.00  0.00    +0.000 NA
ENDROOT
BRANCH   1   8
ATOM      3  O   UNL     1      -0.823   5.037   0.000  0.00  0.00    +0.000 OA
ATOM      4  C   UNL     1      -0.823   4.212   0.000  0.00  0.00    +0.000 A 
ATOM      5  C   UNL     1      -1.537   3.800   0.000  0.00  0.00    +0.000 A 
ATOM      6  F   UNL     1      -2.252   4.212   0.000  0.00  0.00    +0.000 F 
ATOM      7  C   UNL     1      -1.537   2.975   0.000  0.00  0.00    +0.000 A 
ATOM      8  C   UNL     1      -0.823   2.562   0.000  0.00  0.00    +0.000 A 
ATOM      9  C   UNL     1      -0.108   2.975   0.000  0.00  0.00    +0.000 A 
ATOM     10  C   UNL     1      -0.108   3.800   0.000  0.00  0.00    +0.000 A 
ENDBRANCH   1   8
BRANCH   2  11
ATOM     11  O   UNL     1      -1.537   0.500   0.000  0.00  0.00    +0.000 OA
BRANCH  11  12
ATOM     12  C   UNL     1      -0.823   0.087   0.000  0.00  0.00    +0.000 C 
ATOM     13  O   UNL     1      -0.108   0.500   0.000  0.00  0.00    +0.000 OA
BRANCH  12  14
ATOM     14  C   UNL     1      -0.823  -0.738   0.000  0.00  0.00    +0.000 C 
ATOM     15  C   UNL     1      -0.108  -1.150   0.000  0.00  0.00    +0.000 C 
ATOM     16  C   UNL     1      -0.108  -1.975   0.000  0.00  0.00    +0.000 C 
ATOM     17  C   UNL     1      -0.823  -2.388   0.000  0.00  0.00    +0.000 C 
ATOM     18  C   UNL     1      -1.537  -1.975   0.000  0.00  0.00    +0.000 C 
ATOM     19  C   UNL     1      -1.537  -1.150   0.000  0.00  0.00    +0.000 C 
ENDBRANCH  12  14
ENDBRANCH  11  12
ENDBRANCH   2  11
TORSDOF 4
