REMARK  Name = OX5
REMARK  5 active torsions:
REMARK  status: ('A' for Active; 'I' for Inactive)
REMARK    1  A    between atoms: C_5  and  C_8
REMARK    2  A    between atoms: N_9  and  O_10
REMARK    3  A    between atoms: O_10  and  C_11
REMARK    4  A    between atoms: C_11  and  C_12
REMARK    5  A    between atoms: C_12  and  C_15
REMARK                            x       y       z     vdW  Elec       q    Type
REMARK                         _______ _______ _______ _____ _____    ______ ____
ROOT
ATOM      1  C   UNL     1      -2.104   2.234   0.000  0.00  0.00    +0.000 C 
ATOM      2  N   UNL     1      -2.104   1.409   0.000  0.00  0.00    +0.000 NA
ENDROOT
BRANCH   1   7
ATOM      3  O   UNL     1      -4.962   3.884   0.000  0.00  0.00    +0.000 OA
ATOM      4  C   UNL     1      -4.248   3.472   0.000  0.00  0.00    +0.000 A 
ATOM      5  C   UNL     1      -3.533   3.884   0.000  0.00  0.00    +0.000 A 
ATOM      6  C   UNL     1      -2.819   3.472   0.000  0.00  0.00    +0.000 A 
ATOM      7  C   UNL     1      -2.819   2.647   0.000  0.00  0.00    +0.000 A 
ATOM      8  C   UNL     1      -3.533   2.234   0.000  0.00  0.00    +0.000 A 
ATOM      9  C   UNL     1      -4.248   2.647   0.000  0.00  0.00    +0.000 A 
ENDBRANCH   1   7
BRANCH   2  10
ATOM     10  O   UNL     1      -1.390   0.997   0.000  0.00  0.00    +0.000 OA
BRANCH  10  11
ATOM     11  C   UNL     1      -0.675   1.409   0.000  0.00  0.00    +0.000 C 
ATOM     12  O   UNL     1      -0.675   2.234   0.000  0.00  0.00    +0.000 OA
BRANCH  11  13
ATOM     13  C   UNL     1       0.039   0.997   0.000  0.00  0.00    +0.000 C 
BRANCH  13  16
ATOM     14  C   UNL     1       1.468   1.822   0.000  0.00  0.00    +0.000 C 
ATOM     15  C   UNL     1       1.166   0.695   0.000  0.00  0.00    +0.000 C 
ATOM     16  C   UNL     1       0.753   1.409   0.000  0.00  0.00    +0.000 C 
ATOM     17  C   UNL     1       0.341   2.124   0.000  0.00  0.00    +0.000 C 
ENDBRANCH  13  16
ENDBRANCH  11  13
ENDBRANCH  10  11
ENDBRANCH   2  10
TORSDOF 5
