REMARK  Name = P01
REMARK  6 active torsions:
REMARK  status: ('A' for Active; 'I' for Inactive)
REMARK    1  A    between atoms: C_4  and  N_8
REMARK    2  A    between atoms: N_8  and  C_9
REMARK    3  A    between atoms: N_13  and  C_14
REMARK    4  A    between atoms: N_21  and  CA_22
REMARK    5  A    between atoms: CA_22  and  CB_23
REMARK    6  A    between atoms: CA_22  and  C_26
REMARK                            x       y       z     vdW  Elec       q    Type
REMARK                         _______ _______ _______ _____ _____    ______ ____
ROOT
ATOM      1  C   UNK A   0      -0.138  -0.986   0.000  0.00  0.00    +0.000 A 
ATOM      2  C   UNK A   0      -0.853  -0.573   0.000  0.00  0.00    +0.000 A 
ATOM      3  N   UNK A   0      -1.637  -0.828   0.000  0.00  0.00    +0.000 NA
ATOM      4  C   UNK A   0      -0.853   0.252   0.000  0.00  0.00    +0.000 A 
ATOM      5  N   UNK A   0      -1.637   0.507   0.000  0.00  0.00    +0.000 N 
ATOM      6  C   UNK A   0      -2.122  -0.161   0.000  0.00  0.00    +0.000 A 
ATOM      7  N   UNK A   0      -0.138   0.664   0.000  0.00  0.00    +0.000 NA
ATOM      8  C   UNK A   0       0.576   0.252   0.000  0.00  0.00    +0.000 A 
ATOM      9  N   UNK A   0       0.576  -0.573   0.000  0.00  0.00    +0.000 NA
ATOM     10  N   VAL A   1       1.291   0.664   0.000  0.00  0.00    +0.000 NA
ENDROOT
BRANCH   5  11
ATOM     11  C   UNK A   0      -1.892   1.291   0.000  0.00  0.00    +0.000 C 
ATOM     12  C   UNK A   0      -2.699   1.463   0.000  0.00  0.00    +0.000 C 
ATOM     13  C   UNK A   0      -1.340   1.905   0.000  0.00  0.00    +0.000 C 
ENDBRANCH   5  11
BRANCH   1  14
ATOM     14  N   UNK A   0      -0.138  -1.811   0.000  0.00  0.00    +0.000 NA
BRANCH  14  18
ATOM     15 CL   UNK A   0      -2.996  -1.811   0.000  0.00  0.00    +0.000 Cl
ATOM     16  C   UNK A   0      -2.282  -2.223   0.000  0.00  0.00    +0.000 A 
ATOM     17  C   UNK A   0      -1.567  -1.811   0.000  0.00  0.00    +0.000 A 
ATOM     18  C   UNK A   0      -0.853  -2.223   0.000  0.00  0.00    +0.000 A 
ATOM     19  C   UNK A   0      -0.853  -3.048   0.000  0.00  0.00    +0.000 A 
ATOM     20  C   UNK A   0      -1.567  -3.461   0.000  0.00  0.00    +0.000 A 
ATOM     21  C   UNK A   0      -2.282  -3.048   0.000  0.00  0.00    +0.000 A 
ENDBRANCH  14  18
ENDBRANCH   1  14
BRANCH  10  22
ATOM     22  CA  VAL A   1       1.291   1.489   0.000  0.00  0.00    +0.000 C 
BRANCH  22  23
ATOM     23  CB  VAL A   1       2.005   1.902   0.000  0.00  0.00    +0.000 C 
ATOM     24  CG1 VAL A   1       2.005   2.727   0.000  0.00  0.00    +0.000 C 
ATOM     25  CG2 VAL A   1       2.720   1.489   0.000  0.00  0.00    +0.000 C 
ENDBRANCH  22  23
BRANCH  22  26
ATOM     26  C   VAL A   1       0.576   1.902   0.000  0.00  0.00    +0.000 C 
ATOM     27  O   VAL A   1       0.576   2.727   0.000  0.00  0.00    +0.000 OA
ENDBRANCH  22  26
ENDBRANCH  10  22
TORSDOF 6
