REMARK  Name = P04
REMARK  1 active torsions:
REMARK  status: ('A' for Active; 'I' for Inactive)
REMARK    1  A    between atoms: N_10  and  C_11
REMARK                            x       y       z     vdW  Elec       q    Type
REMARK                         _______ _______ _______ _____ _____    ______ ____
ROOT
ATOM      1  N   UNL     1      -0.708  -0.240   0.000  0.00  0.00    +0.000 NA
ATOM      2  C   UNL     1      -1.374  -0.507   0.000  0.00  0.00    +0.000 A 
ATOM      3  C   UNL     1      -2.020   0.009   0.000  0.00  0.00    +0.000 A 
ATOM      4  C   UNL     1      -1.623   0.733   0.000  0.00  0.00    +0.000 A 
ATOM      5  N   UNL     1      -0.974   0.410   0.000  0.00  0.00    +0.000 N 
ATOM      6  N   UNL     1      -0.798   0.751   0.000  0.00  0.00    +0.000 NA
ATOM      7  C   UNL     1      -0.401   1.474   0.000  0.00  0.00    +0.000 A 
ATOM      8  N   UNL     1      -0.546   1.982   0.000  0.00  0.00    +0.000 NA
ATOM      9  C   UNL     1      -0.274   1.204   0.000  0.00  0.00    +0.000 A 
ATOM     10  N   UNL     1       0.453   1.000   0.000  0.00  0.00    +0.000 NA
ATOM     11  N   UNL     1       0.424   1.492   0.000  0.00  0.00    +0.000 NA
ATOM     12  C   UNL     1       0.852   0.786   0.000  0.00  0.00    +0.000 A 
ATOM     13  C   UNL     1       0.455   0.063   0.000  0.00  0.00    +0.000 A 
ATOM     14  C   UNL     1       0.883  -0.642   0.000  0.00  0.00    +0.000 A 
ATOM     15  C   UNL     1       1.708  -0.624   0.000  0.00  0.00    +0.000 A 
ATOM     16  C   UNL     1       2.104   0.099   0.000  0.00  0.00    +0.000 A 
ATOM     17  C   UNL     1       1.676   0.804   0.000  0.00  0.00    +0.000 A 
ATOM     18  N   UNL     1       0.486  -1.365   0.000  0.00  0.00    +0.000 NA
ATOM     19  C   UNL     1      -0.339  -1.383   0.000  0.00  0.00    +0.000 C 
ATOM     20  O   UNL     1      -0.750  -0.829   0.000  0.00  0.00    +0.000 OA
ATOM     21  C   UNL     1      -0.736  -2.107   0.000  0.00  0.00    +0.000 C 
ATOM     22  C   UNL     1      -1.561  -2.125   0.000  0.00  0.00    +0.000 C 
ATOM     23  C   UNL     1      -1.989  -1.419   0.000  0.00  0.00    +0.000 C 
ATOM     24  C   UNL     1      -1.592  -0.696   0.000  0.00  0.00    +0.000 C 
ENDROOT
BRANCH  10  25
ATOM     25  C   UNL     1       1.075   1.675   0.000  0.00  0.00    +0.000 C 
ATOM     26  C   UNL     1       1.257   2.479   0.000  0.00  0.00    +0.000 C 
ATOM     27  C   UNL     1       1.863   1.920   0.000  0.00  0.00    +0.000 C 
ENDBRANCH  10  25
TORSDOF 1
