REMARK  Name = P19
REMARK  2 active torsions:
REMARK  status: ('A' for Active; 'I' for Inactive)
REMARK    1  A    between atoms: N_10  and  C_11
REMARK    2  A    between atoms: N_17  and  C_18
REMARK                            x       y       z     vdW  Elec       q    Type
REMARK                         _______ _______ _______ _____ _____    ______ ____
ROOT
ATOM      1  N   UNL     1      -1.353  -0.544   0.000  0.00  0.00    +0.000 NA
ATOM      2  C   UNL     1      -1.838   0.123   0.000  0.00  0.00    +0.000 A 
ATOM      3  C   UNL     1      -1.353   0.790   0.000  0.00  0.00    +0.000 A 
ATOM      4  C   UNL     1      -0.568   0.536   0.000  0.00  0.00    +0.000 A 
ATOM      5  N   UNL     1      -0.568  -0.289   0.000  0.00  0.00    +0.000 N 
ATOM      6  N   UNL     1       0.146   0.948   0.000  0.00  0.00    +0.000 NA
ATOM      7  C   UNL     1       0.861   0.536   0.000  0.00  0.00    +0.000 A 
ATOM      8  N   UNL     1       0.861  -0.289   0.000  0.00  0.00    +0.000 NA
ATOM      9  C   UNL     1       0.146  -0.702   0.000  0.00  0.00    +0.000 A 
ATOM     10  N   UNL     1       0.146  -1.527   0.000  0.00  0.00    +0.000 NA
ATOM     11  N   UNL     1       1.575   0.948   0.000  0.00  0.00    +0.000 NA
ENDROOT
BRANCH  10  12
ATOM     12  C   UNL     1      -0.568  -1.939   0.000  0.00  0.00    +0.000 A 
ATOM     13  C   UNL     1      -0.568  -2.764   0.000  0.00  0.00    +0.000 A 
ATOM     14  C   UNL     1      -1.282  -3.177   0.000  0.00  0.00    +0.000 A 
ATOM     15  C   UNL     1      -1.997  -2.764   0.000  0.00  0.00    +0.000 A 
ATOM     16  C   UNL     1      -1.997  -1.939   0.000  0.00  0.00    +0.000 A 
ATOM     17  C   UNL     1      -1.282  -1.527   0.000  0.00  0.00    +0.000 A 
ENDBRANCH  10  12
BRANCH  11  18
ATOM     18  C   UNL     1       1.575   1.773   0.000  0.00  0.00    +0.000 A 
ATOM     19  C   UNL     1       2.290   2.186   0.000  0.00  0.00    +0.000 A 
ATOM     20  C   UNL     1       2.290   3.011   0.000  0.00  0.00    +0.000 A 
ATOM     21  C   UNL     1       1.575   3.423   0.000  0.00  0.00    +0.000 A 
ATOM     22  C   UNL     1       0.861   3.011   0.000  0.00  0.00    +0.000 A 
ATOM     23  C   UNL     1       0.861   2.186   0.000  0.00  0.00    +0.000 A 
ENDBRANCH  11  18
TORSDOF 2
