REMARK  Name = P1E
REMARK  6 active torsions:
REMARK  status: ('A' for Active; 'I' for Inactive)
REMARK    1  A    between atoms: C_1  and  N_22
REMARK    2  A    between atoms: C_6  and  C_9
REMARK    3  A    between atoms: N_12  and  C_13
REMARK    4  A    between atoms: C_17  and  N_18
REMARK    5  A    between atoms: C_26  and  S_27
REMARK    6  A    between atoms: S_27  and  N_30
REMARK                            x       y       z     vdW  Elec       q    Type
REMARK                         _______ _______ _______ _____ _____    ______ ____
ROOT
ATOM      1  C   UNL     1      -0.343   1.049   0.000  0.00  0.00    +0.000 A 
ATOM      2  C   UNL     1       0.371  -0.188   0.000  0.00  0.00    +0.000 A 
ATOM      3  C   UNL     1      -0.343  -0.601   0.000  0.00  0.00    +0.000 A 
ATOM      4  N   UNL     1       0.371   0.637   0.000  0.00  0.00    +0.000 NA
ATOM      5  C   UNL     1      -1.057  -0.188   0.000  0.00  0.00    +0.000 A 
ATOM      6  N   UNL     1      -1.772  -0.601   0.000  0.00  0.00    +0.000 NA
ATOM      7  N   UNL     1      -1.057   0.637   0.000  0.00  0.00    +0.000 NA
ATOM      8  N   UNL     1      -0.343   1.874   0.000  0.00  0.00    +0.000 NA
ENDROOT
BRANCH   8   9
ATOM      9  C   UNL     1       0.371   2.287   0.000  0.00  0.00    +0.000 A 
ATOM     10  C   UNL     1       1.086   3.524   0.000  0.00  0.00    +0.000 A 
ATOM     11  C   UNL     1       0.371   3.112   0.000  0.00  0.00    +0.000 A 
ATOM     12  C   UNL     1       1.086   1.874   0.000  0.00  0.00    +0.000 A 
ATOM     13  C   UNL     1       1.800   2.287   0.000  0.00  0.00    +0.000 A 
ATOM     14  C   UNL     1       1.800   3.112   0.000  0.00  0.00    +0.000 A 
BRANCH  14  15
ATOM     15  S   UNL     1       2.515   3.524   0.000  0.00  0.00    +0.000 S 
ATOM     16  O   UNL     1       2.927   2.810   0.000  0.00  0.00    +0.000 OA
ATOM     17  O   UNL     1       2.102   4.239   0.000  0.00  0.00    +0.000 OA
BRANCH  15  18
ATOM     18  N   UNL     1       3.229   3.937   0.000  0.00  0.00    +0.000 NA
ATOM     19  C   UNL     1       3.229   4.762   0.000  0.00  0.00    +0.000 C 
ENDBRANCH  15  18
ENDBRANCH  14  15
ENDBRANCH   8   9
BRANCH   6  20
ATOM     20  C   UNL     1      -1.772  -1.426   0.000  0.00  0.00    +0.000 C 
ATOM     21  C   UNL     1      -1.105  -1.911   0.000  0.00  0.00    +0.000 C 
ATOM     22  C   UNL     1      -1.359  -2.695   0.000  0.00  0.00    +0.000 C 
ATOM     23  C   UNL     1      -2.184  -2.695   0.000  0.00  0.00    +0.000 C 
ATOM     24  C   UNL     1      -2.439  -1.911   0.000  0.00  0.00    +0.000 C 
BRANCH  24  25
ATOM     25  N   UNL     1      -3.224  -1.656   0.000  0.00  0.00    +0.000 NA
ATOM     26  C   UNL     1      -3.837  -2.208   0.000  0.00  0.00    +0.000 C 
ATOM     27  C   UNL     1      -3.396  -0.849   0.000  0.00  0.00    +0.000 C 
ENDBRANCH  24  25
ENDBRANCH   6  20
BRANCH   3  29
ATOM     28  F   UNL     1      -0.343  -2.251   0.000  0.00  0.00    +0.000 F 
ATOM     29  C   UNL     1      -0.343  -1.426   0.000  0.00  0.00    +0.000 C 
ATOM     30  F   UNL     1      -1.168  -1.426   0.000  0.00  0.00    +0.000 F 
ATOM     31  F   UNL     1       0.482  -1.426   0.000  0.00  0.00    +0.000 F 
ENDBRANCH   3  29
TORSDOF 6
