REMARK  Name = P21
REMARK  9 active torsions:
REMARK  status: ('A' for Active; 'I' for Inactive)
REMARK    1  A    between atoms: C_7  and  C_8
REMARK    2  A    between atoms: N_10  and  C_11
REMARK    3  A    between atoms: N_10  and  C_13
REMARK    4  A    between atoms: C_11  and  C_12
REMARK    5  A    between atoms: C_12  and  C_27
REMARK    6  A    between atoms: N_15  and  C_19
REMARK    7  A    between atoms: C_19  and  C_20
REMARK    8  A    between atoms: C_20  and  C_21
REMARK    9  A    between atoms: C_27  and  O_28
REMARK                            x       y       z     vdW  Elec       q    Type
REMARK                         _______ _______ _______ _____ _____    ______ ____
ROOT
ATOM      1  C   UNL     1       0.129   1.599   0.000  0.00  0.00    +0.000 C 
ATOM      2  O   UNL     1      -0.586   2.012   0.000  0.00  0.00    +0.000 OA
ATOM      3  N   UNL     1       0.129   0.774   0.000  0.00  0.00    +0.000 N 
ENDROOT
BRANCH   1  10
ATOM      4 CL   UNL     1       2.986   3.249   0.000  0.00  0.00    +0.000 Cl
ATOM      5  C   UNL     1       2.272   2.837   0.000  0.00  0.00    +0.000 A 
ATOM      6  C   UNL     1       2.272   2.012   0.000  0.00  0.00    +0.000 A 
ATOM      7  C   UNL     1       1.558   1.599   0.000  0.00  0.00    +0.000 A 
ATOM      8  C   UNL     1       1.558   3.249   0.000  0.00  0.00    +0.000 A 
ATOM      9  C   UNL     1       0.843   2.837   0.000  0.00  0.00    +0.000 A 
ATOM     10  C   UNL     1       0.843   2.012   0.000  0.00  0.00    +0.000 A 
ENDBRANCH   1  10
BRANCH   3  11
ATOM     11  C   UNL     1      -0.586   0.362   0.000  0.00  0.00    +0.000 C 
ATOM     12  C   UNL     1      -0.586  -0.463   0.000  0.00  0.00    +0.000 C 
ATOM     13  N   UNL     1      -1.300  -0.876   0.000  0.00  0.00    +0.000 NA
ATOM     14  C   UNL     1      -2.015  -0.463   0.000  0.00  0.00    +0.000 C 
ATOM     15  C   UNL     1      -2.015   0.362   0.000  0.00  0.00    +0.000 C 
ATOM     16  C   UNL     1      -1.300   0.774   0.000  0.00  0.00    +0.000 C 
BRANCH  13  17
ATOM     17  C   UNL     1      -1.300  -1.701   0.000  0.00  0.00    +0.000 C 
BRANCH  17  18
ATOM     18  C   UNL     1      -0.586  -2.113   0.000  0.00  0.00    +0.000 C 
BRANCH  18  19
ATOM     19  C   UNL     1      -0.586  -2.938   0.000  0.00  0.00    +0.000 A 
ATOM     20  C   UNL     1       0.129  -3.351   0.000  0.00  0.00    +0.000 A 
ATOM     21  C   UNL     1       0.129  -4.176   0.000  0.00  0.00    +0.000 A 
ATOM     22  C   UNL     1      -0.586  -4.588   0.000  0.00  0.00    +0.000 A 
ATOM     23  C   UNL     1      -1.300  -4.176   0.000  0.00  0.00    +0.000 A 
ATOM     24  C   UNL     1      -1.300  -3.351   0.000  0.00  0.00    +0.000 A 
ENDBRANCH  18  19
ENDBRANCH  17  18
ENDBRANCH  13  17
ENDBRANCH   3  11
BRANCH   3  25
ATOM     25  C   UNL     1       0.843   0.362   0.000  0.00  0.00    +0.000 C 
BRANCH  25  26
ATOM     26  C   UNL     1       1.558   0.774   0.000  0.00  0.00    +0.000 C 
BRANCH  26  27
ATOM     27  C   UNL     1       2.272   0.362   0.000  0.00  0.00    +0.000 C 
BRANCH  27  28
ATOM     28  O   UNL     1       2.986   0.774   0.000  0.00  0.00    +0.000 OA
ATOM     29  C   UNL     1       3.701   0.362   0.000  0.00  0.00    +0.000 C 
ENDBRANCH  27  28
ENDBRANCH  26  27
ENDBRANCH  25  26
ENDBRANCH   3  25
TORSDOF 9
