REMARK  Name = P28
REMARK  8 active torsions:
REMARK  status: ('A' for Active; 'I' for Inactive)
REMARK    1  A    between atoms: C_1  and  C_7
REMARK    2  A    between atoms: C_4  and  O_16
REMARK    3  A    between atoms: C_7  and  CA_8
REMARK    4  A    between atoms: CA_8  and  C_9
REMARK    5  A    between atoms: CA_8  and  N_12
REMARK    6  A    between atoms: O_16  and  C_17
REMARK    7  A    between atoms: C_19  and  N_20
REMARK    8  A    between atoms: C_25  and  N_26
REMARK                            x       y       z     vdW  Elec       q    Type
REMARK                         _______ _______ _______ _____ _____    ______ ____
ROOT
ATOM      1  C   UNL     1       2.863  -2.385   0.000  0.00  0.00    +0.000 A 
ATOM      2  C   UNL     1       2.149  -2.798   0.000  0.00  0.00    +0.000 A 
ATOM      3  C   UNL     1       1.434  -2.385   0.000  0.00  0.00    +0.000 A 
ATOM      4  C   UNL     1       1.434  -1.560   0.000  0.00  0.00    +0.000 A 
ATOM      5  C   UNL     1       2.149  -1.148   0.000  0.00  0.00    +0.000 A 
ATOM      6  C   UNL     1       2.863  -1.560   0.000  0.00  0.00    +0.000 A 
ENDROOT
BRANCH   4   7
ATOM      7  O   UNL     1       0.720  -1.148   0.000  0.00  0.00    +0.000 OA
BRANCH   7   8
ATOM      8  C   UNL     1       0.720  -0.323   0.000  0.00  0.00    +0.000 A 
ATOM      9  C   UNL     1       0.005   0.090   0.000  0.00  0.00    +0.000 A 
ATOM     10  C   UNL     1       0.005   0.915   0.000  0.00  0.00    +0.000 A 
ATOM     11  C   UNL     1       0.720   1.327   0.000  0.00  0.00    +0.000 A 
ATOM     12  O   UNL     1       0.720   2.152   0.000  0.00  0.00    +0.000 OA
ATOM     13  C   UNL     1       1.434   0.915   0.000  0.00  0.00    +0.000 A 
ATOM     14  C   UNL     1       1.434   0.090   0.000  0.00  0.00    +0.000 A 
BRANCH  10  15
ATOM     15  N   UNL     1      -0.709   1.327   0.000  0.00  0.00    +0.000 N 
ATOM     16  O   UNL     1      -1.423   0.915   0.000  0.00  0.00    +0.000 OA
ATOM     17  O   UNL     1      -0.709   2.152   0.000  0.00  0.00    +0.000 OA
ENDBRANCH  10  15
BRANCH  13  18
ATOM     18  N   UNL     1       2.149   1.327   0.000  0.00  0.00    +0.000 N 
ATOM     19  O   UNL     1       2.863   0.915   0.000  0.00  0.00    +0.000 OA
ATOM     20  O   UNL     1       2.149   2.152   0.000  0.00  0.00    +0.000 OA
ENDBRANCH  13  18
ENDBRANCH   7   8
ENDBRANCH   4   7
BRANCH   1  21
ATOM     21  C   UNL     1       3.578  -2.798   0.000  0.00  0.00    +0.000 C 
BRANCH  21  22
ATOM     22  CA  UNL     1       4.292  -2.385   0.000  0.00  0.00    +0.000 C 
BRANCH  22  23
ATOM     23  N   UNL     1       5.007  -2.798   0.000  0.00  0.00    +0.000 NA
ATOM     24  C   UNL     1       5.721  -2.385   0.000  0.00  0.00    +0.000 C 
ATOM     25  C   UNL     1       6.436  -2.798   0.000  0.00  0.00    +0.000 C 
ATOM     26  O   UNL     1       5.721  -1.560   0.000  0.00  0.00    +0.000 OA
ENDBRANCH  22  23
BRANCH  22  27
ATOM     27  C   UNL     1       4.292  -1.560   0.000  0.00  0.00    +0.000 C 
ATOM     28  O   UNL     1       3.578  -1.148   0.000  0.00  0.00    +0.000 OA
ATOM     29  OXT UNL     1       5.007  -1.148   0.000  0.00  0.00    +0.000 OA
ENDBRANCH  22  27
ENDBRANCH  21  22
ENDBRANCH   1  21
TORSDOF 8
