REMARK  Name = P29
REMARK  5 active torsions:
REMARK  status: ('A' for Active; 'I' for Inactive)
REMARK    1  A    between atoms: C_3  and  C_25
REMARK    2  A    between atoms: N_10  and  C_11
REMARK    3  A    between atoms: C_11  and  C_12
REMARK    4  A    between atoms: C_12  and  C_13
REMARK    5  A    between atoms: N_18  and  C_19
REMARK                            x       y       z     vdW  Elec       q    Type
REMARK                         _______ _______ _______ _____ _____    ______ ____
ROOT
ATOM      1  N   UNL     1      -1.483   0.520   0.000  0.00  0.00    +0.000 NA
ATOM      2  C   UNL     1      -1.968   1.187   0.000  0.00  0.00    +0.000 A 
ATOM      3  C   UNL     1      -1.483   1.855   0.000  0.00  0.00    +0.000 A 
ATOM      4  C   UNL     1      -0.699   1.600   0.000  0.00  0.00    +0.000 A 
ATOM      5  N   UNL     1      -0.699   0.775   0.000  0.00  0.00    +0.000 N 
ATOM      6  N   UNL     1       0.016   2.012   0.000  0.00  0.00    +0.000 NA
ATOM      7  C   UNL     1       0.731   1.600   0.000  0.00  0.00    +0.000 A 
ATOM      8  N   UNL     1       0.731   0.775   0.000  0.00  0.00    +0.000 NA
ATOM      9  C   UNL     1       0.016   0.362   0.000  0.00  0.00    +0.000 A 
ATOM     10  N   UNL     1       0.016  -0.463   0.000  0.00  0.00    +0.000 NA
ATOM     11  N   UNL     1       1.445   2.012   0.000  0.00  0.00    +0.000 NA
ENDROOT
BRANCH  11  12
ATOM     12  C   UNL     1       2.159   1.600   0.000  0.00  0.00    +0.000 A 
ATOM     13  C   UNL     1       2.874   2.012   0.000  0.00  0.00    +0.000 A 
ATOM     14  C   UNL     1       3.588   1.600   0.000  0.00  0.00    +0.000 A 
ATOM     15  C   UNL     1       3.588   0.775   0.000  0.00  0.00    +0.000 A 
ATOM     16  C   UNL     1       2.874   0.362   0.000  0.00  0.00    +0.000 A 
ATOM     17  C   UNL     1       2.159   0.775   0.000  0.00  0.00    +0.000 A 
ENDBRANCH  11  12
BRANCH   3  18
ATOM     18  C   UNL     1      -1.738   2.639   0.000  0.00  0.00    +0.000 C 
ATOM     19  N   UNL     1      -1.993   3.424   0.000  0.00  0.00    +0.000 NA
ENDBRANCH   3  18
BRANCH  10  20
ATOM     20  C   UNL     1      -0.699  -0.875   0.000  0.00  0.00    +0.000 C 
BRANCH  20  21
ATOM     21  C   UNL     1      -0.699  -1.700   0.000  0.00  0.00    +0.000 C 
BRANCH  21  22
ATOM     22  C   UNL     1      -1.413  -2.113   0.000  0.00  0.00    +0.000 A 
ATOM     23  N   UNL     1      -1.499  -2.933   0.000  0.00  0.00    +0.000 NA
ATOM     24  C   UNL     1      -2.306  -3.105   0.000  0.00  0.00    +0.000 A 
ATOM     25  N   UNL     1      -2.719  -2.390   0.000  0.00  0.00    +0.000 NA
ATOM     26  C   UNL     1      -2.167  -1.777   0.000  0.00  0.00    +0.000 A 
ENDBRANCH  21  22
ENDBRANCH  20  21
ENDBRANCH  10  20
TORSDOF 5
