REMARK  Name = P2C
REMARK  5 active torsions:
REMARK  status: ('A' for Active; 'I' for Inactive)
REMARK    1  A    between atoms: C_3  and  O_4
REMARK    2  A    between atoms: O_4  and  O_5
REMARK    3  A    between atoms: C_11  and  N_12
REMARK    4  A    between atoms: N_12  and  C_13
REMARK    5  A    between atoms: C_18  and  C_19
REMARK                            x       y       z     vdW  Elec       q    Type
REMARK                         _______ _______ _______ _____ _____    ______ ____
ROOT
ATOM      1 CL   UNL     1       0.178   2.580   0.000  0.00  0.00    +0.000 Cl
ATOM      2  C   UNL     1       0.178   1.755   0.000  0.00  0.00    +0.000 A 
ATOM      3  C   UNL     1       0.892   1.343   0.000  0.00  0.00    +0.000 A 
ATOM      4  C   UNL     1       0.892   0.518   0.000  0.00  0.00    +0.000 A 
ATOM      5 CL   UNL     1       1.607   0.105   0.000  0.00  0.00    +0.000 Cl
ATOM      6  C   UNL     1       0.178   0.105   0.000  0.00  0.00    +0.000 A 
ATOM      7  C   UNL     1      -0.536   1.343   0.000  0.00  0.00    +0.000 A 
ATOM      8  C   UNL     1      -0.536   0.518   0.000  0.00  0.00    +0.000 A 
ENDROOT
BRANCH   3   9
ATOM      9  O   UNL     1       1.607   1.755   0.000  0.00  0.00    +0.000 OA
BRANCH   9  10
ATOM     10  O   UNL     1       1.607   2.580   0.000  0.00  0.00    +0.000 OA
ATOM     11  O   UNL     1       2.321   2.993   0.000  0.00  0.00    +0.000 OA
ENDBRANCH   9  10
ENDBRANCH   3   9
BRANCH   8  12
ATOM     12  N   UNL     1      -1.251   0.105   0.000  0.00  0.00    +0.000 NA
BRANCH  12  13
ATOM     13  C   UNL     1      -1.251  -0.720   0.000  0.00  0.00    +0.000 A 
ATOM     14  C   UNL     1      -0.536  -1.132   0.000  0.00  0.00    +0.000 A 
ATOM     15  C   UNL     1      -0.536  -1.957   0.000  0.00  0.00    +0.000 A 
ATOM     16  C   UNL     1      -1.251  -2.370   0.000  0.00  0.00    +0.000 A 
ATOM     17  C   UNL     1      -1.966  -1.957   0.000  0.00  0.00    +0.000 A 
ATOM     18  C   UNL     1      -1.966  -1.132   0.000  0.00  0.00    +0.000 A 
BRANCH  18  19
ATOM     19  C   UNL     1      -2.680  -0.720   0.000  0.00  0.00    +0.000 C 
ATOM     20  O   UNL     1      -3.394  -1.132   0.000  0.00  0.00    +0.000 OA
ATOM     21  O   UNL     1      -2.680   0.105   0.000  0.00  0.00    +0.000 OA
ENDBRANCH  18  19
ENDBRANCH  12  13
ENDBRANCH   8  12
TORSDOF 5
