REMARK  Name = P2N
REMARK  0 active torsions:
REMARK  status: ('A' for Active; 'I' for Inactive)
REMARK                            x       y       z     vdW  Elec       q    Type
REMARK                         _______ _______ _______ _____ _____    ______ ____
ROOT
ATOM      1  C   UNL     1      -0.773  -0.906   0.000  0.00  0.00    +0.000 C 
ATOM      2  C   UNL     1      -1.488  -0.494   0.000  0.00  0.00    +0.000 A 
ATOM      3  C   UNL     1      -2.202  -0.906   0.000  0.00  0.00    +0.000 A 
ATOM      4  C   UNL     1      -2.917  -0.494   0.000  0.00  0.00    +0.000 A 
ATOM      5  C   UNL     1      -2.917   0.331   0.000  0.00  0.00    +0.000 A 
ATOM      6  C   UNL     1      -2.202   0.744   0.000  0.00  0.00    +0.000 A 
ATOM      7  C   UNL     1      -1.488   0.331   0.000  0.00  0.00    +0.000 A 
ATOM      8  C   UNL     1      -0.773   0.744   0.000  0.00  0.00    +0.000 C 
ATOM      9  C   UNL     1      -0.773   1.569   0.000  0.00  0.00    +0.000 C 
ATOM     10  C   UNL     1      -0.059   1.981   0.000  0.00  0.00    +0.000 C 
ATOM     11  C   UNL     1       0.655   1.569   0.000  0.00  0.00    +0.000 C 
ATOM     12  C   UNL     1       0.655   0.744   0.000  0.00  0.00    +0.000 C 
ATOM     13  C   UNL     1       1.370   0.331   0.000  0.00  0.00    +0.000 C 
ATOM     14  C   UNL     1       1.370  -0.494   0.000  0.00  0.00    +0.000 C 
ATOM     15  C   UNL     1       0.655  -0.906   0.000  0.00  0.00    +0.000 C 
ATOM     16  C   UNL     1       0.655  -1.731   0.000  0.00  0.00    +0.000 C 
ATOM     17  C   UNL     1      -0.059  -2.144   0.000  0.00  0.00    +0.000 C 
ATOM     18  O   UNL     1      -0.773  -1.731   0.000  0.00  0.00    +0.000 OA
ATOM     19  O   UNL     1      -0.059  -0.494   0.000  0.00  0.00    +0.000 OA
ATOM     20  O   UNL     1      -2.202  -1.731   0.000  0.00  0.00    +0.000 OA
ATOM     21  O   UNL     1      -3.631   0.744   0.000  0.00  0.00    +0.000 OA
ATOM     22 CL   UNL     1      -2.202   1.569   0.000  0.00  0.00    +0.000 Cl
ATOM     23  O   UNL     1      -1.488   1.981   0.000  0.00  0.00    +0.000 OA
ENDROOT
TORSDOF 0
