REMARK  Name = P40
REMARK  6 active torsions:
REMARK  status: ('A' for Active; 'I' for Inactive)
REMARK    1  A    between atoms: C_1  and  C_2
REMARK    2  A    between atoms: C_1  and  N_31
REMARK    3  A    between atoms: C_2  and  N_19
REMARK    4  A    between atoms: C_6  and  C_9
REMARK    5  A    between atoms: C_11  and  C_13
REMARK    6  A    between atoms: C_14  and  N_32
REMARK                            x       y       z     vdW  Elec       q    Type
REMARK                         _______ _______ _______ _____ _____    ______ ____
ROOT
ATOM      1  C   UNL     1      -0.450  -0.902   0.000  0.00  0.00    +0.000 A 
ATOM      2  C   UNL     1      -1.164  -0.489   0.000  0.00  0.00    +0.000 A 
ATOM      3  C   UNL     1      -1.164   0.336   0.000  0.00  0.00    +0.000 A 
ATOM      4  C   UNL     1      -0.450   0.748   0.000  0.00  0.00    +0.000 A 
ATOM      5  N   UNL     1       1.693  -0.489   0.000  0.00  0.00    +0.000 NA
ATOM      6  C   UNL     1       0.979  -0.902   0.000  0.00  0.00    +0.000 A 
ATOM      7  C   UNL     1       0.265  -0.489   0.000  0.00  0.00    +0.000 A 
ATOM      8  C   UNL     1       0.265   0.336   0.000  0.00  0.00    +0.000 A 
ATOM      9  N   UNL     1       0.979   0.748   0.000  0.00  0.00    +0.000 NA
ATOM     10  C   UNL     1       1.693   0.336   0.000  0.00  0.00    +0.000 A 
ATOM     11  N   UNL     1       2.408   0.748   0.000  0.00  0.00    +0.000 NA
ENDROOT
BRANCH   2  12
ATOM     12  C   UNL     1      -1.879  -0.902   0.000  0.00  0.00    +0.000 A 
ATOM     13  C   UNL     1      -1.879  -1.727   0.000  0.00  0.00    +0.000 A 
ATOM     14  C   UNL     1      -2.593  -2.139   0.000  0.00  0.00    +0.000 A 
ATOM     15  C   UNL     1      -3.308  -1.727   0.000  0.00  0.00    +0.000 A 
ATOM     16  C   UNL     1      -3.308  -0.902   0.000  0.00  0.00    +0.000 A 
ATOM     17  C   UNL     1      -2.593  -0.489   0.000  0.00  0.00    +0.000 A 
ATOM     18  C   UNL     1      -2.593   0.336   0.000  0.00  0.00    +0.000 C 
BRANCH  14  19
ATOM     19  C   UNL     1      -2.593  -2.965   0.000  0.00  0.00    +0.000 C 
ATOM     20  O   UNL     1      -1.879  -3.377   0.000  0.00  0.00    +0.000 OA
ATOM     21  N   UNL     1      -3.308  -3.377   0.000  0.00  0.00    +0.000 NA
BRANCH  21  22
ATOM     22  C   UNL     1      -3.308  -4.202   0.000  0.00  0.00    +0.000 C 
ATOM     23  C   UNL     1      -2.895  -4.917   0.000  0.00  0.00    +0.000 C 
ATOM     24  C   UNL     1      -3.720  -4.917   0.000  0.00  0.00    +0.000 C 
ENDBRANCH  21  22
ENDBRANCH  14  19
ENDBRANCH   2  12
BRANCH  11  25
ATOM     25  C   UNL     1       2.408   1.573   0.000  0.00  0.00    +0.000 C 
BRANCH  25  26
ATOM     26  C   UNL     1       3.122   1.986   0.000  0.00  0.00    +0.000 C 
BRANCH  26  29
ATOM     27  C   UNL     1       3.837   4.048   0.000  0.00  0.00    +0.000 C 
ATOM     28  C   UNL     1       3.837   3.223   0.000  0.00  0.00    +0.000 C 
ATOM     29  N   UNL     1       3.122   2.811   0.000  0.00  0.00    +0.000 NA
ATOM     30  C   UNL     1       2.408   3.223   0.000  0.00  0.00    +0.000 C 
ATOM     31  C   UNL     1       2.408   4.048   0.000  0.00  0.00    +0.000 C 
ATOM     32  O   UNL     1       3.122   4.460   0.000  0.00  0.00    +0.000 OA
ENDBRANCH  26  29
ENDBRANCH  25  26
ENDBRANCH  11  25
TORSDOF 6
