REMARK  Name = P41
REMARK  3 active torsions:
REMARK  status: ('A' for Active; 'I' for Inactive)
REMARK    1  A    between atoms: C_5  and  C_17
REMARK    2  A    between atoms: C_6  and  N_22
REMARK    3  A    between atoms: C_18  and  C_19
REMARK                            x       y       z     vdW  Elec       q    Type
REMARK                         _______ _______ _______ _____ _____    ______ ____
ROOT
ATOM      1  C   UNL     1      -1.077  -0.766   0.000  0.00  0.00    +0.000 A 
ATOM      2  C   UNL     1      -2.346  -0.354   0.000  0.00  0.00    +0.000 A 
ATOM      3  C   UNL     1      -1.077   0.059   0.000  0.00  0.00    +0.000 A 
ATOM      4  C   UNL     1       0.352   0.059   0.000  0.00  0.00    +0.000 A 
ATOM      5  C   UNL     1      -0.362   0.471   0.000  0.00  0.00    +0.000 A 
ATOM      6  C   UNL     1      -0.362  -1.179   0.000  0.00  0.00    +0.000 A 
ATOM      7  C   UNL     1       0.352  -0.766   0.000  0.00  0.00    +0.000 A 
ATOM      8  N   UNL     1      -1.861   0.314   0.000  0.00  0.00    +0.000 NA
ATOM      9  N   UNL     1      -3.171  -0.354   0.000  0.00  0.00    +0.000 NA
ATOM     10  S   UNL     1      -1.861  -1.021   0.000  0.00  0.00    +0.000 S 
ENDROOT
BRANCH   7  11
ATOM     11  C   UNL     1       1.067  -1.179   0.000  0.00  0.00    +0.000 A 
ATOM     12  C   UNL     1       1.960  -2.171   0.000  0.00  0.00    +0.000 A 
ATOM     13  C   UNL     1       1.820  -0.843   0.000  0.00  0.00    +0.000 A 
ATOM     14  N   UNL     1       2.372  -1.456   0.000  0.00  0.00    +0.000 NA
ATOM     15  O   UNL     1       1.153  -1.999   0.000  0.00  0.00    +0.000 OA
BRANCH  13  21
ATOM     16  C   UNL     1       2.776   0.219   0.000  0.00  0.00    +0.000 A 
ATOM     17  C   UNL     1       1.550   1.323   0.000  0.00  0.00    +0.000 A 
ATOM     18  C   UNL     1       2.335   1.578   0.000  0.00  0.00    +0.000 A 
ATOM     19  C   UNL     1       1.379   0.516   0.000  0.00  0.00    +0.000 A 
ATOM     20  C   UNL     1       2.948   1.026   0.000  0.00  0.00    +0.000 A 
ATOM     21  C   UNL     1       1.992  -0.036   0.000  0.00  0.00    +0.000 A 
ATOM     22  F   UNL     1       3.389  -0.333   0.000  0.00  0.00    +0.000 F 
ENDBRANCH  13  21
ENDBRANCH   7  11
BRANCH   9  25
ATOM     23  C   UNL     1      -4.409   0.361   0.000  0.00  0.00    +0.000 C 
ATOM     24  C   UNL     1      -3.171   1.075   0.000  0.00  0.00    +0.000 C 
ATOM     25  C   UNL     1      -3.584   0.361   0.000  0.00  0.00    +0.000 C 
ENDBRANCH   9  25
TORSDOF 3
