REMARK  Name = P44
REMARK  4 active torsions:
REMARK  status: ('A' for Active; 'I' for Inactive)
REMARK    1  A    between atoms: C_3  and  C_25
REMARK    2  A    between atoms: N_10  and  C_11
REMARK    3  A    between atoms: N_17  and  C_18
REMARK    4  A    between atoms: C_18  and  C_19
REMARK                            x       y       z     vdW  Elec       q    Type
REMARK                         _______ _______ _______ _____ _____    ______ ____
ROOT
ATOM      1  N   UNL     1      -1.667  -0.853   0.000  0.00  0.00    +0.000 NA
ATOM      2  C   UNL     1      -2.152  -0.186   0.000  0.00  0.00    +0.000 A 
ATOM      3  C   UNL     1      -1.667   0.482   0.000  0.00  0.00    +0.000 A 
ATOM      4  C   UNL     1      -0.883   0.227   0.000  0.00  0.00    +0.000 A 
ATOM      5  N   UNL     1      -0.883  -0.598   0.000  0.00  0.00    +0.000 N 
ATOM      6  N   UNL     1      -0.168   0.639   0.000  0.00  0.00    +0.000 NA
ATOM      7  C   UNL     1       0.546   0.227   0.000  0.00  0.00    +0.000 A 
ATOM      8  N   UNL     1       0.546  -0.598   0.000  0.00  0.00    +0.000 NA
ATOM      9  C   UNL     1      -0.168  -1.011   0.000  0.00  0.00    +0.000 A 
ATOM     10  N   UNL     1      -0.168  -1.836   0.000  0.00  0.00    +0.000 NA
ATOM     11  N   UNL     1       1.261   0.639   0.000  0.00  0.00    +0.000 NA
ENDROOT
BRANCH  10  12
ATOM     12  C   UNL     1      -0.883  -2.248   0.000  0.00  0.00    +0.000 A 
ATOM     13  C   UNL     1      -0.883  -3.073   0.000  0.00  0.00    +0.000 A 
ATOM     14  C   UNL     1      -1.597  -3.486   0.000  0.00  0.00    +0.000 A 
ATOM     15  C   UNL     1      -2.312  -3.073   0.000  0.00  0.00    +0.000 A 
ATOM     16  C   UNL     1      -2.312  -2.248   0.000  0.00  0.00    +0.000 A 
ATOM     17  C   UNL     1      -1.597  -1.836   0.000  0.00  0.00    +0.000 A 
ENDBRANCH  10  12
BRANCH   3  18
ATOM     18  C   UNL     1      -1.922   1.266   0.000  0.00  0.00    +0.000 C 
ATOM     19  N   UNL     1      -2.177   2.051   0.000  0.00  0.00    +0.000 NA
ENDBRANCH   3  18
BRANCH  11  20
ATOM     20  C   UNL     1       1.261   1.464   0.000  0.00  0.00    +0.000 C 
BRANCH  20  21
ATOM     21  C   UNL     1       1.975   1.877   0.000  0.00  0.00    +0.000 C 
ATOM     22  C   UNL     1       1.975   2.702   0.000  0.00  0.00    +0.000 C 
ATOM     23  C   UNL     1       2.690   3.114   0.000  0.00  0.00    +0.000 C 
ATOM     24  C   UNL     1       3.404   2.702   0.000  0.00  0.00    +0.000 C 
ATOM     25  C   UNL     1       3.404   1.877   0.000  0.00  0.00    +0.000 C 
ATOM     26  C   UNL     1       2.690   1.464   0.000  0.00  0.00    +0.000 C 
ENDBRANCH  20  21
ENDBRANCH  11  20
TORSDOF 4
