REMARK  Name = P45
REMARK  4 active torsions:
REMARK  status: ('A' for Active; 'I' for Inactive)
REMARK    1  A    between atoms: C_3  and  C_25
REMARK    2  A    between atoms: N_10  and  C_11
REMARK    3  A    between atoms: N_17  and  C_18
REMARK    4  A    between atoms: C_18  and  C_19
REMARK                            x       y       z     vdW  Elec       q    Type
REMARK                         _______ _______ _______ _____ _____    ______ ____
ROOT
ATOM      1  N   UNL     1      -2.201  -0.226   0.000  0.00  0.00    +0.000 NA
ATOM      2  C   UNL     1      -2.686   0.441   0.000  0.00  0.00    +0.000 A 
ATOM      3  C   UNL     1      -2.201   1.109   0.000  0.00  0.00    +0.000 A 
ATOM      4  C   UNL     1      -1.417   0.854   0.000  0.00  0.00    +0.000 A 
ATOM      5  N   UNL     1      -1.417   0.029   0.000  0.00  0.00    +0.000 N 
ATOM      6  N   UNL     1      -0.702   1.266   0.000  0.00  0.00    +0.000 NA
ATOM      7  C   UNL     1       0.012   0.854   0.000  0.00  0.00    +0.000 A 
ATOM      8  N   UNL     1       0.012   0.029   0.000  0.00  0.00    +0.000 NA
ATOM      9  C   UNL     1      -0.702  -0.384   0.000  0.00  0.00    +0.000 A 
ATOM     10  N   UNL     1      -0.702  -1.209   0.000  0.00  0.00    +0.000 NA
ATOM     11  N   UNL     1       0.727   1.266   0.000  0.00  0.00    +0.000 NA
ENDROOT
BRANCH  10  12
ATOM     12  C   UNL     1      -1.417  -1.621   0.000  0.00  0.00    +0.000 A 
ATOM     13  C   UNL     1      -1.417  -2.446   0.000  0.00  0.00    +0.000 A 
ATOM     14  C   UNL     1      -2.131  -2.859   0.000  0.00  0.00    +0.000 A 
ATOM     15  C   UNL     1      -2.845  -2.446   0.000  0.00  0.00    +0.000 A 
ATOM     16  C   UNL     1      -2.845  -1.621   0.000  0.00  0.00    +0.000 A 
ATOM     17  C   UNL     1      -2.131  -1.209   0.000  0.00  0.00    +0.000 A 
ENDBRANCH  10  12
BRANCH   3  18
ATOM     18  C   UNL     1      -2.456   1.893   0.000  0.00  0.00    +0.000 C 
ATOM     19  N   UNL     1      -2.711   2.678   0.000  0.00  0.00    +0.000 NA
ENDBRANCH   3  18
BRANCH  11  20
ATOM     20  C   UNL     1       1.441   0.854   0.000  0.00  0.00    +0.000 C 
BRANCH  20  21
ATOM     21  C   UNL     1       2.156   1.266   0.000  0.00  0.00    +0.000 A 
ATOM     22  C   UNL     1       2.870   0.854   0.000  0.00  0.00    +0.000 A 
ATOM     23  C   UNL     1       3.585   1.266   0.000  0.00  0.00    +0.000 A 
ATOM     24  C   UNL     1       3.585   2.091   0.000  0.00  0.00    +0.000 A 
ATOM     25  C   UNL     1       2.870   2.504   0.000  0.00  0.00    +0.000 A 
ATOM     26  C   UNL     1       2.156   2.091   0.000  0.00  0.00    +0.000 A 
ATOM     27 CL   UNL     1       4.299   2.504   0.000  0.00  0.00    +0.000 Cl
ENDBRANCH  20  21
ENDBRANCH  11  20
TORSDOF 4
