REMARK  Name = P49
REMARK  2 active torsions:
REMARK  status: ('A' for Active; 'I' for Inactive)
REMARK    1  A    between atoms: C_13  and  C_22
REMARK    2  A    between atoms: N_15  and  C_16
REMARK                            x       y       z     vdW  Elec       q    Type
REMARK                         _______ _______ _______ _____ _____    ______ ____
ROOT
ATOM      1  C   UNL     1       0.470   0.923   0.000  0.00  0.00    +0.000 A 
ATOM      2  N   UNL     1       0.904   0.222   0.000  0.00  0.00    +0.000 NA
ATOM      3  C   UNL     1       0.515  -0.505   0.000  0.00  0.00    +0.000 A 
ATOM      4  N   UNL     1      -0.310  -0.531   0.000  0.00  0.00    +0.000 NA
ATOM      5  C   UNL     1      -0.355   0.898   0.000  0.00  0.00    +0.000 A 
ATOM      6  C   UNL     1      -0.745   0.171   0.000  0.00  0.00    +0.000 A 
ATOM      7  C   UNL     1      -1.614   1.573   0.000  0.00  0.00    +0.000 C 
ATOM      8  C   UNL     1      -0.789   1.599   0.000  0.00  0.00    +0.000 C 
ATOM      9  C   UNL     1      -2.004   0.846   0.000  0.00  0.00    +0.000 A 
ATOM     10  C   UNL     1      -1.569   0.145   0.000  0.00  0.00    +0.000 A 
ATOM     11  N   UNL     1      -2.102  -0.485   0.000  0.00  0.00    +0.000 N 
ATOM     12  N   UNL     1      -2.866  -0.173   0.000  0.00  0.00    +0.000 NA
ATOM     13  C   UNL     1      -2.805   0.649   0.000  0.00  0.00    +0.000 A 
ATOM     14  C   UNL     1      -1.905  -1.286   0.000  0.00  0.00    +0.000 C 
ATOM     15  N   UNL     1       0.949  -1.206   0.000  0.00  0.00    +0.000 NA
ENDROOT
BRANCH  15  16
ATOM     16  C   UNL     1       1.774  -1.180   0.000  0.00  0.00    +0.000 A 
ATOM     17  C   UNL     1       2.164  -0.453   0.000  0.00  0.00    +0.000 A 
ATOM     18  C   UNL     1       2.988  -0.428   0.000  0.00  0.00    +0.000 A 
ATOM     19  C   UNL     1       3.423  -1.129   0.000  0.00  0.00    +0.000 A 
ATOM     20  C   UNL     1       3.033  -1.856   0.000  0.00  0.00    +0.000 A 
ATOM     21  C   UNL     1       2.208  -1.882   0.000  0.00  0.00    +0.000 A 
ENDBRANCH  15  16
BRANCH  13  22
ATOM     22  C   UNL     1      -3.435   1.182   0.000  0.00  0.00    +0.000 C 
ATOM     23  O   UNL     1      -4.211   0.903   0.000  0.00  0.00    +0.000 OA
ATOM     24  O   UNL     1      -3.289   1.994   0.000  0.00  0.00    +0.000 OA
ENDBRANCH  13  22
TORSDOF 2
