REMARK  Name = P4A
REMARK  3 active torsions:
REMARK  status: ('A' for Active; 'I' for Inactive)
REMARK    1  A    between atoms: C_3  and  C_6
REMARK    2  A    between atoms: C_4  and  C_7
REMARK    3  A    between atoms: C_11  and  O_21
REMARK                            x       y       z     vdW  Elec       q    Type
REMARK                         _______ _______ _______ _____ _____    ______ ____
ROOT
ATOM      1  N   UNL     1       0.434   2.325   0.000  0.00  0.00    +0.000 NA
ATOM      2  N   UNL     1       1.101   1.840   0.000  0.00  0.00    +0.000 NA
ATOM      3  C   UNL     1       0.846   1.055   0.000  0.00  0.00    +0.000 A 
ATOM      4  C   UNL     1       0.021   1.055   0.000  0.00  0.00    +0.000 A 
ATOM      5  C   UNL     1      -0.234   1.840   0.000  0.00  0.00    +0.000 A 
ATOM      6  C   UNL     1      -1.018   2.095   0.000  0.00  0.00    +0.000 C 
ENDROOT
BRANCH   3   7
ATOM      7  C   UNL     1       1.331   0.388   0.000  0.00  0.00    +0.000 A 
ATOM      8  C   UNL     1       2.152   0.474   0.000  0.00  0.00    +0.000 A 
ATOM      9  C   UNL     1       2.637  -0.194   0.000  0.00  0.00    +0.000 A 
ATOM     10  C   UNL     1       2.301  -0.947   0.000  0.00  0.00    +0.000 A 
ATOM     11  C   UNL     1       1.481  -1.034   0.000  0.00  0.00    +0.000 A 
ATOM     12  C   UNL     1       0.996  -0.366   0.000  0.00  0.00    +0.000 A 
ATOM     13  O   UNL     1       2.786  -1.615   0.000  0.00  0.00    +0.000 OA
ATOM     14  O   UNL     1       2.487   1.228   0.000  0.00  0.00    +0.000 OA
ENDBRANCH   3   7
BRANCH   4  15
ATOM     15  C   UNL     1      -0.464   0.388   0.000  0.00  0.00    +0.000 A 
ATOM     16  C   UNL     1      -0.128  -0.366   0.000  0.00  0.00    +0.000 A 
ATOM     17  C   UNL     1      -0.613  -1.034   0.000  0.00  0.00    +0.000 A 
ATOM     18  C   UNL     1      -1.433  -0.947   0.000  0.00  0.00    +0.000 A 
ATOM     19  C   UNL     1      -1.769  -0.194   0.000  0.00  0.00    +0.000 A 
ATOM     20  C   UNL     1      -1.284   0.474   0.000  0.00  0.00    +0.000 A 
BRANCH  18  21
ATOM     21  O   UNL     1      -1.918  -1.615   0.000  0.00  0.00    +0.000 OA
ATOM     22  C   UNL     1      -1.583  -2.368   0.000  0.00  0.00    +0.000 C 
ENDBRANCH  18  21
ENDBRANCH   4  15
TORSDOF 3
