REMARK  Name = P4O
REMARK  2 active torsions:
REMARK  status: ('A' for Active; 'I' for Inactive)
REMARK    1  A    between atoms: C_10  and  C_11
REMARK    2  A    between atoms: C_16  and  C_17
REMARK                            x       y       z     vdW  Elec       q    Type
REMARK                         _______ _______ _______ _____ _____    ______ ____
ROOT
ATOM      1  C   UNL     1      -1.922   0.229   0.000  0.00  0.00    +0.000 A 
ATOM      2  C   UNL     1      -1.097   0.229   0.000  0.00  0.00    +0.000 A 
ATOM      3  N   UNL     1      -2.335  -0.486   0.000  0.00  0.00    +0.000 NA
ATOM      4  C   UNL     1      -1.922  -1.200   0.000  0.00  0.00    +0.000 A 
ATOM      5  C   UNL     1      -1.097  -1.200   0.000  0.00  0.00    +0.000 A 
ATOM      6  C   UNL     1      -0.685  -0.486   0.000  0.00  0.00    +0.000 A 
ENDROOT
BRANCH   1  16
ATOM      7  C   UNL     1      -3.160   0.943   0.000  0.00  0.00    +0.000 A 
ATOM      8  C   UNL     1      -3.572   1.658   0.000  0.00  0.00    +0.000 A 
ATOM      9  C   UNL     1      -4.397   1.658   0.000  0.00  0.00    +0.000 A 
ATOM     10  C   UNL     1      -4.810   2.372   0.000  0.00  0.00    +0.000 A 
ATOM     11  C   UNL     1      -4.397   3.087   0.000  0.00  0.00    +0.000 A 
ATOM     12  C   UNL     1      -3.572   3.087   0.000  0.00  0.00    +0.000 A 
ATOM     13  C   UNL     1      -3.160   2.372   0.000  0.00  0.00    +0.000 A 
ATOM     14  N   UNL     1      -2.335   2.372   0.000  0.00  0.00    +0.000 NA
ATOM     15  C   UNL     1      -1.922   1.658   0.000  0.00  0.00    +0.000 A 
ATOM     16  C   UNL     1      -2.335   0.943   0.000  0.00  0.00    +0.000 A 
ENDBRANCH   1  16
BRANCH   6  17
ATOM     17  C   UNL     1       0.140  -0.486   0.000  0.00  0.00    +0.000 A 
ATOM     18  C   UNL     1       0.625   0.182   0.000  0.00  0.00    +0.000 A 
ATOM     19  C   UNL     1       1.410  -0.073   0.000  0.00  0.00    +0.000 A 
ATOM     20  C   UNL     1       2.124   0.339   0.000  0.00  0.00    +0.000 C 
ATOM     21  O   UNL     1       2.124   1.164   0.000  0.00  0.00    +0.000 OA
ATOM     22  N   UNL     1       2.839  -0.073   0.000  0.00  0.00    +0.000 NA
ATOM     23  C   UNL     1       2.839  -0.898   0.000  0.00  0.00    +0.000 C 
ATOM     24  C   UNL     1       2.124  -1.311   0.000  0.00  0.00    +0.000 C 
ATOM     25  C   UNL     1       1.410  -0.898   0.000  0.00  0.00    +0.000 A 
ATOM     26  N   UNL     1       0.625  -1.153   0.000  0.00  0.00    +0.000 NA
ENDBRANCH   6  17
TORSDOF 2
