REMARK  Name = P4T
REMARK  2 active torsions:
REMARK  status: ('A' for Active; 'I' for Inactive)
REMARK    1  A    between atoms: N_3  and  C_8
REMARK    2  A    between atoms: C_5  and  C_6
REMARK                            x       y       z     vdW  Elec       q    Type
REMARK                         _______ _______ _______ _____ _____    ______ ____
ROOT
ATOM      1  N   UNL     1      22.119  37.691   0.000  0.00  0.00    +0.000 NA
ATOM      2  C   UNL     1      21.864  36.906   0.000  0.00  0.00    +0.000 A 
ATOM      3  N   UNL     1      22.349  36.239   0.000  0.00  0.00    +0.000 NA
ATOM      4  C   UNL     1      21.452  38.176   0.000  0.00  0.00    +0.000 A 
ATOM      5  C   UNL     1      20.784  37.691   0.000  0.00  0.00    +0.000 A 
ATOM      6  C   UNL     1      21.452  39.001   0.000  0.00  0.00    +0.000 C 
ATOM      7  S   UNL     1      21.039  36.906   0.000  0.00  0.00    +0.000 S 
ENDROOT
BRANCH   3   8
ATOM      8  C   UNL     1      23.170  36.325   0.000  0.00  0.00    +0.000 A 
ATOM      9  C   UNL     1      23.505  37.079   0.000  0.00  0.00    +0.000 A 
ATOM     10  C   UNL     1      24.326  37.165   0.000  0.00  0.00    +0.000 A 
ATOM     11  C   UNL     1      24.811  36.497   0.000  0.00  0.00    +0.000 A 
ATOM     12  C   UNL     1      24.475  35.744   0.000  0.00  0.00    +0.000 A 
ATOM     13  C   UNL     1      23.654  35.657   0.000  0.00  0.00    +0.000 A 
ENDBRANCH   3   8
BRANCH   5  14
ATOM     14  C   UNL     1      20.000  37.946   0.000  0.00  0.00    +0.000 C 
ATOM     15  C   UNL     1      19.387  37.394   0.000  0.00  0.00    +0.000 C 
ATOM     16  O   UNL     1      19.828  38.753   0.000  0.00  0.00    +0.000 OA
ENDBRANCH   5  14
TORSDOF 2
