REMARK  Name = P55
REMARK  3 active torsions:
REMARK  status: ('A' for Active; 'I' for Inactive)
REMARK    1  A    between atoms: C_3  and  C_25
REMARK    2  A    between atoms: N_10  and  C_11
REMARK    3  A    between atoms: N_20  and  C_23
REMARK                            x       y       z     vdW  Elec       q    Type
REMARK                         _______ _______ _______ _____ _____    ______ ____
ROOT
ATOM      1  N   UNL     1      -1.714  -0.575   0.000  0.00  0.00    +0.000 NA
ATOM      2  C   UNL     1      -2.199   0.092   0.000  0.00  0.00    +0.000 A 
ATOM      3  C   UNL     1      -1.714   0.760   0.000  0.00  0.00    +0.000 A 
ATOM      4  C   UNL     1      -0.929   0.505   0.000  0.00  0.00    +0.000 A 
ATOM      5  N   UNL     1      -0.929  -0.320   0.000  0.00  0.00    +0.000 N 
ATOM      6  N   UNL     1      -0.215   0.917   0.000  0.00  0.00    +0.000 NA
ATOM      7  C   UNL     1       0.500   0.505   0.000  0.00  0.00    +0.000 A 
ATOM      8  N   UNL     1       0.500  -0.320   0.000  0.00  0.00    +0.000 NA
ATOM      9  C   UNL     1      -0.215  -0.733   0.000  0.00  0.00    +0.000 A 
ATOM     10  N   UNL     1      -0.215  -1.558   0.000  0.00  0.00    +0.000 NA
ATOM     11  N   UNL     1       1.214   0.917   0.000  0.00  0.00    +0.000 N 
ATOM     12  C   UNL     1       1.929   0.505   0.000  0.00  0.00    +0.000 C 
ATOM     13  C   UNL     1       2.643   0.917   0.000  0.00  0.00    +0.000 C 
ATOM     14  N   UNL     1       2.643   1.742   0.000  0.00  0.00    +0.000 NA
ATOM     15  C   UNL     1       1.929   2.155   0.000  0.00  0.00    +0.000 C 
ATOM     16  C   UNL     1       1.214   1.742   0.000  0.00  0.00    +0.000 C 
ENDROOT
BRANCH  10  17
ATOM     17  C   UNL     1      -0.929  -1.970   0.000  0.00  0.00    +0.000 A 
ATOM     18  C   UNL     1      -0.929  -2.795   0.000  0.00  0.00    +0.000 A 
ATOM     19  C   UNL     1      -1.644  -3.208   0.000  0.00  0.00    +0.000 A 
ATOM     20  C   UNL     1      -2.358  -2.795   0.000  0.00  0.00    +0.000 A 
ATOM     21  C   UNL     1      -2.358  -1.970   0.000  0.00  0.00    +0.000 A 
ATOM     22  C   UNL     1      -1.644  -1.558   0.000  0.00  0.00    +0.000 A 
ENDBRANCH  10  17
BRANCH  14  23
ATOM     23  C   UNL     1       3.358   2.155   0.000  0.00  0.00    +0.000 C 
ATOM     24  C   UNL     1       3.358   2.980   0.000  0.00  0.00    +0.000 C 
ENDBRANCH  14  23
BRANCH   3  25
ATOM     25  C   UNL     1      -1.969   1.544   0.000  0.00  0.00    +0.000 C 
ATOM     26  N   UNL     1      -2.224   2.329   0.000  0.00  0.00    +0.000 NA
ENDBRANCH   3  25
TORSDOF 3
