REMARK  Name = P63
REMARK  4 active torsions:
REMARK  status: ('A' for Active; 'I' for Inactive)
REMARK    1  A    between atoms: C_3  and  C_24
REMARK    2  A    between atoms: N_10  and  C_11
REMARK    3  A    between atoms: N_17  and  C_18
REMARK    4  A    between atoms: C_20  and  N_26
REMARK                            x       y       z     vdW  Elec       q    Type
REMARK                         _______ _______ _______ _____ _____    ______ ____
ROOT
ATOM      1  N   UNL     1      -2.324   0.122   0.000  0.00  0.00    +0.000 NA
ATOM      2  C   UNL     1      -2.809   0.789   0.000  0.00  0.00    +0.000 A 
ATOM      3  C   UNL     1      -2.324   1.457   0.000  0.00  0.00    +0.000 A 
ATOM      4  C   UNL     1      -1.540   1.202   0.000  0.00  0.00    +0.000 A 
ATOM      5  N   UNL     1      -1.540   0.377   0.000  0.00  0.00    +0.000 N 
ATOM      6  N   UNL     1      -0.825   1.614   0.000  0.00  0.00    +0.000 NA
ATOM      7  C   UNL     1      -0.111   1.202   0.000  0.00  0.00    +0.000 A 
ATOM      8  N   UNL     1      -0.111   0.377   0.000  0.00  0.00    +0.000 NA
ATOM      9  C   UNL     1      -0.825  -0.036   0.000  0.00  0.00    +0.000 A 
ATOM     10  N   UNL     1      -0.825  -0.861   0.000  0.00  0.00    +0.000 NA
ATOM     11  N   UNL     1       0.604   1.614   0.000  0.00  0.00    +0.000 NA
ENDROOT
BRANCH  10  12
ATOM     12  C   UNL     1      -1.540  -1.273   0.000  0.00  0.00    +0.000 A 
ATOM     13  C   UNL     1      -2.254  -0.861   0.000  0.00  0.00    +0.000 A 
ATOM     14  C   UNL     1      -2.969  -1.273   0.000  0.00  0.00    +0.000 A 
ATOM     15  C   UNL     1      -2.969  -2.098   0.000  0.00  0.00    +0.000 A 
ATOM     16  C   UNL     1      -2.254  -2.511   0.000  0.00  0.00    +0.000 A 
ATOM     17  C   UNL     1      -1.540  -2.098   0.000  0.00  0.00    +0.000 A 
ENDBRANCH  10  12
BRANCH  11  18
ATOM     18  C   UNL     1       1.318   1.202   0.000  0.00  0.00    +0.000 A 
ATOM     19  C   UNL     1       2.033   1.614   0.000  0.00  0.00    +0.000 A 
ATOM     20  C   UNL     1       2.747   1.202   0.000  0.00  0.00    +0.000 A 
ATOM     21  C   UNL     1       2.747   0.377   0.000  0.00  0.00    +0.000 A 
ATOM     22  C   UNL     1       2.033  -0.036   0.000  0.00  0.00    +0.000 A 
ATOM     23  C   UNL     1       1.318   0.377   0.000  0.00  0.00    +0.000 A 
BRANCH  20  24
ATOM     24  N   UNL     1       3.462   1.614   0.000  0.00  0.00    +0.000 NA
ATOM     25  C   UNL     1       4.176   1.202   0.000  0.00  0.00    +0.000 C 
ATOM     26  O   UNL     1       4.891   1.614   0.000  0.00  0.00    +0.000 OA
ATOM     27  C   UNL     1       4.176   0.377   0.000  0.00  0.00    +0.000 C 
ENDBRANCH  20  24
ENDBRANCH  11  18
BRANCH   3  28
ATOM     28  C   UNL     1      -2.579   2.241   0.000  0.00  0.00    +0.000 C 
ATOM     29  N   UNL     1      -2.834   3.026   0.000  0.00  0.00    +0.000 NA
ENDBRANCH   3  28
TORSDOF 4
