REMARK  Name = P89
REMARK  14 active torsions:
REMARK  status: ('A' for Active; 'I' for Inactive)
REMARK    1  A    between atoms: C_2  and  C_3
REMARK    2  A    between atoms: C_3  and  C_4
REMARK    3  A    between atoms: C_4  and  C_5
REMARK    4  A    between atoms: C_5  and  C_6
REMARK    5  A    between atoms: C_6  and  C_7
REMARK    6  A    between atoms: C_7  and  C_8
REMARK    7  A    between atoms: C_8  and  C_9
REMARK    8  A    between atoms: C_9  and  C_10
REMARK    9  A    between atoms: C_10  and  C_12
REMARK   10  A    between atoms: C_12  and  N_13
REMARK   11  A    between atoms: C_14  and  C_15
REMARK   12  A    between atoms: C_22  and  C_23
REMARK   13  A    between atoms: C_23  and  O_24
REMARK   14  A    between atoms: O_24  and  P_25
REMARK                            x       y       z     vdW  Elec       q    Type
REMARK                         _______ _______ _______ _____ _____    ______ ____
ROOT
ATOM      1  N   UNL     1       2.315   0.174   0.000  0.00  0.00    +0.000 NA
ATOM      2  C   UNL     1       3.030  -0.239   0.000  0.00  0.00    +0.000 C 
ENDROOT
BRANCH   2   3
ATOM      3  C   UNL     1       3.744   0.174   0.000  0.00  0.00    +0.000 A 
ATOM      4  C   UNL     1       3.744   0.999   0.000  0.00  0.00    +0.000 A 
ATOM      5  O   UNL     1       3.030   1.411   0.000  0.00  0.00    +0.000 OA
ATOM      6  C   UNL     1       4.459   1.411   0.000  0.00  0.00    +0.000 A 
ATOM      7  C   UNL     1       4.459   2.236   0.000  0.00  0.00    +0.000 C 
ATOM      8  N   UNL     1       5.173   0.999   0.000  0.00  0.00    +0.000 NA
ATOM      9  C   UNL     1       5.173   0.174   0.000  0.00  0.00    +0.000 A 
ATOM     10  C   UNL     1       4.459  -0.239   0.000  0.00  0.00    +0.000 A 
BRANCH  10  11
ATOM     11  C   UNL     1       4.459  -1.064   0.000  0.00  0.00    +0.000 C 
BRANCH  11  12
ATOM     12  O   UNL     1       5.173  -1.476   0.000  0.00  0.00    +0.000 OA
BRANCH  12  13
ATOM     13  P   UNL     1       5.888  -1.064   0.000  0.00  0.00    +0.000 P 
ATOM     14  O   UNL     1       6.602  -0.651   0.000  0.00  0.00    +0.000 OA
ATOM     15  O   UNL     1       6.300  -1.778   0.000  0.00  0.00    +0.000 OA
ATOM     16  O   UNL     1       5.475  -0.349   0.000  0.00  0.00    +0.000 OA
ENDBRANCH  12  13
ENDBRANCH  11  12
ENDBRANCH  10  11
ENDBRANCH   2   3
BRANCH   1  17
ATOM     17  C   UNL     1       1.601  -0.239   0.000  0.00  0.00    +0.000 C 
BRANCH  17  18
ATOM     18  C   UNL     1       0.886   0.174   0.000  0.00  0.00    +0.000 C 
ATOM     19  O   UNL     1       0.886   0.999   0.000  0.00  0.00    +0.000 OA
BRANCH  18  20
ATOM     20  C   UNL     1       0.172  -0.239   0.000  0.00  0.00    +0.000 C 
BRANCH  20  21
ATOM     21  C   UNL     1      -0.542   0.174   0.000  0.00  0.00    +0.000 C 
BRANCH  21  22
ATOM     22  C   UNL     1      -1.257  -0.239   0.000  0.00  0.00    +0.000 C 
BRANCH  22  23
ATOM     23  C   UNL     1      -1.972   0.174   0.000  0.00  0.00    +0.000 C 
BRANCH  23  24
ATOM     24  C   UNL     1      -2.686  -0.239   0.000  0.00  0.00    +0.000 C 
BRANCH  24  25
ATOM     25  C   UNL     1      -3.400   0.174   0.000  0.00  0.00    +0.000 C 
BRANCH  25  26
ATOM     26  C   UNL     1      -4.115  -0.239   0.000  0.00  0.00    +0.000 C 
BRANCH  26  28
ATOM     27  C   UNL     1      -5.544  -0.239   0.000  0.00  0.00    +0.000 C 
ATOM     28  C   UNL     1      -4.829   0.174   0.000  0.00  0.00    +0.000 C 
ENDBRANCH  26  28
ENDBRANCH  25  26
ENDBRANCH  24  25
ENDBRANCH  23  24
ENDBRANCH  22  23
ENDBRANCH  21  22
ENDBRANCH  20  21
ENDBRANCH  18  20
ENDBRANCH  17  18
ENDBRANCH   1  17
TORSDOF 14
