REMARK  Name = P91
REMARK  4 active torsions:
REMARK  status: ('A' for Active; 'I' for Inactive)
REMARK    1  A    between atoms: C_2  and  C_7
REMARK    2  A    between atoms: C_17  and  C_21
REMARK    3  A    between atoms: N_18  and  C_19
REMARK    4  A    between atoms: C_19  and  C_20
REMARK                            x       y       z     vdW  Elec       q    Type
REMARK                         _______ _______ _______ _____ _____    ______ ____
ROOT
ATOM      1  C   UNL     1       0.314   0.550   0.000  0.00  0.00    +0.000 A 
ATOM      2  C   UNL     1       1.139   0.550   0.000  0.00  0.00    +0.000 A 
ATOM      3  C   UNL     1       1.551  -0.165   0.000  0.00  0.00    +0.000 A 
ATOM      4  C   UNL     1       1.139  -0.879   0.000  0.00  0.00    +0.000 A 
ATOM      5  C   UNL     1       1.691  -1.492   0.000  0.00  0.00    +0.000 C 
ATOM      6  C   UNL     1       2.358  -0.336   0.000  0.00  0.00    +0.000 C 
ATOM      7  O   UNL     1       1.519  -2.299   0.000  0.00  0.00    +0.000 OA
ATOM      8  O   UNL     1       2.971   0.216   0.000  0.00  0.00    +0.000 OA
ATOM      9  N   UNL     1       2.445  -1.157   0.000  0.00  0.00    +0.000 NA
ATOM     10  C   UNL     1      -0.992  -1.157   0.000  0.00  0.00    +0.000 A 
ATOM     11  C   UNL     1      -0.238  -1.492   0.000  0.00  0.00    +0.000 A 
ATOM     12 BR   UNL     1      -0.067  -2.299   0.000  0.00  0.00    +0.000 Br
ATOM     13  N   UNL     1      -0.906  -0.336   0.000  0.00  0.00    +0.000 N 
ATOM     14  C   UNL     1      -1.519   0.216   0.000  0.00  0.00    +0.000 C 
ATOM     15  C   UNL     1      -0.099  -0.165   0.000  0.00  0.00    +0.000 A 
ATOM     16  C   UNL     1       0.314  -0.879   0.000  0.00  0.00    +0.000 A 
ENDROOT
BRANCH   2  17
ATOM     17  C   UNL     1       1.551   1.264   0.000  0.00  0.00    +0.000 A 
ATOM     18  C   UNL     1       1.139   1.979   0.000  0.00  0.00    +0.000 A 
ATOM     19  C   UNL     1       1.551   2.693   0.000  0.00  0.00    +0.000 A 
ATOM     20  C   UNL     1       2.376   2.693   0.000  0.00  0.00    +0.000 A 
ATOM     21  C   UNL     1       2.789   1.979   0.000  0.00  0.00    +0.000 A 
ATOM     22  C   UNL     1       2.376   1.264   0.000  0.00  0.00    +0.000 A 
ATOM     23 CL   UNL     1       0.314   1.979   0.000  0.00  0.00    +0.000 Cl
ENDBRANCH   2  17
BRANCH  10  25
ATOM     24  O   UNL     1      -2.421  -1.157   0.000  0.00  0.00    +0.000 OA
ATOM     25  C   UNL     1      -1.706  -1.569   0.000  0.00  0.00    +0.000 C 
ATOM     26  N   UNL     1      -1.706  -2.394   0.000  0.00  0.00    +0.000 NA
BRANCH  26  27
ATOM     27  C   UNL     1      -2.421  -2.807   0.000  0.00  0.00    +0.000 C 
BRANCH  27  29
ATOM     28  O   UNL     1      -3.135  -4.044   0.000  0.00  0.00    +0.000 OA
ATOM     29  C   UNL     1      -2.421  -3.632   0.000  0.00  0.00    +0.000 C 
ENDBRANCH  27  29
ENDBRANCH  26  27
ENDBRANCH  10  25
TORSDOF 4
