REMARK  Name = PA6
REMARK  11 active torsions:
REMARK  status: ('A' for Active; 'I' for Inactive)
REMARK    1  A    between atoms: C_2  and  C_3
REMARK    2  A    between atoms: C_2  and  O_7
REMARK    3  A    between atoms: C_3  and  C_4
REMARK    4  A    between atoms: C_4  and  C_5
REMARK    5  A    between atoms: O_7  and  C_8
REMARK    6  A    between atoms: C_8  and  C_9
REMARK    7  A    between atoms: C_9  and  O_10
REMARK    8  A    between atoms: C_9  and  C_13
REMARK    9  A    between atoms: O_10  and  C_11
REMARK   10  A    between atoms: C_13  and  O_14
REMARK   11  A    between atoms: O_14  and  P_15
REMARK                            x       y       z     vdW  Elec       q    Type
REMARK                         _______ _______ _______ _____ _____    ______ ____
ROOT
ATOM      1  C   UNL     1       0.064   0.891   0.000  0.00  0.00    +0.000 C 
ENDROOT
BRANCH   1   2
ATOM      2  C   UNL     1       0.779   0.479   0.000  0.00  0.00    +0.000 C 
BRANCH   2   3
ATOM      3  O   UNL     1       1.493   0.891   0.000  0.00  0.00    +0.000 OA
BRANCH   3   5
ATOM      4  O   UNL     1       2.208  -0.346   0.000  0.00  0.00    +0.000 OA
ATOM      5  C   UNL     1       2.208   0.479   0.000  0.00  0.00    +0.000 C 
BRANCH   5   6
ATOM      6  C   UNL     1       2.922   0.891   0.000  0.00  0.00    +0.000 C 
BRANCH   6   7
ATOM      7  C   UNL     1       3.637   0.479   0.000  0.00  0.00    +0.000 C 
BRANCH   7   8
ATOM      8  C   UNL     1       4.351   0.891   0.000  0.00  0.00    +0.000 C 
ATOM      9  C   UNL     1       5.066   0.479   0.000  0.00  0.00    +0.000 C 
ENDBRANCH   7   8
ENDBRANCH   6   7
ENDBRANCH   5   6
ENDBRANCH   3   5
ENDBRANCH   2   3
ENDBRANCH   1   2
BRANCH   1  10
ATOM     10  O   UNL     1       0.064   1.716   0.000  0.00  0.00    +0.000 OA
BRANCH  10  11
ATOM     11  C   UNL     1      -0.650   2.129   0.000  0.00  0.00    +0.000 C 
ATOM     12  O   UNL     1      -0.650   2.954   0.000  0.00  0.00    +0.000 OA
ENDBRANCH  10  11
ENDBRANCH   1  10
BRANCH   1  13
ATOM     13  C   UNL     1      -0.650   0.479   0.000  0.00  0.00    +0.000 C 
BRANCH  13  14
ATOM     14  O   UNL     1      -1.365   0.891   0.000  0.00  0.00    +0.000 OA
BRANCH  14  15
ATOM     15  P   UNL     1      -2.079   0.479   0.000  0.00  0.00    +0.000 P 
ATOM     16  O   UNL     1      -2.793   0.067   0.000  0.00  0.00    +0.000 OA
ATOM     17  O   UNL     1      -2.491   1.193   0.000  0.00  0.00    +0.000 OA
ATOM     18  O   UNL     1      -1.666  -0.235   0.000  0.00  0.00    +0.000 OA
ENDBRANCH  14  15
ENDBRANCH  13  14
ENDBRANCH   1  13
TORSDOF 11
