REMARK  Name = PAY
REMARK  10 active torsions:
REMARK  status: ('A' for Active; 'I' for Inactive)
REMARK    1  A    between atoms: C_3  and  C_4
REMARK    2  A    between atoms: C_4  and  C_5
REMARK    3  A    between atoms: C_5  and  C_6
REMARK    4  A    between atoms: C_6  and  C_7
REMARK    5  A    between atoms: C_6  and  C_10
REMARK    6  A    between atoms: C_10  and  C_11
REMARK    7  A    between atoms: C_11  and  C_12
REMARK    8  A    between atoms: C_11  and  C_15
REMARK    9  A    between atoms: C_15  and  C_16
REMARK   10  A    between atoms: C_16  and  C_18
REMARK                            x       y       z     vdW  Elec       q    Type
REMARK                         _______ _______ _______ _____ _____    ______ ____
ROOT
ATOM      1  C   UNL     1      -0.240  -0.492   0.000  0.00  0.00    +0.000 C 
ENDROOT
BRANCH   1   2
ATOM      2  C   UNL     1       0.475  -0.080   0.000  0.00  0.00    +0.000 C 
BRANCH   2   3
ATOM      3  C   UNL     1       0.475   0.745   0.000  0.00  0.00    +0.000 C 
ATOM      4  O   UNL     1       0.139   1.499   0.000  0.00  0.00    +0.000 OA
ATOM      5  O   UNL     1       1.189   1.158   0.000  0.00  0.00    +0.000 OA
ENDBRANCH   2   3
BRANCH   2   6
ATOM      6  C   UNL     1       1.189  -0.492   0.000  0.00  0.00    +0.000 C 
BRANCH   6   7
ATOM      7  C   UNL     1       1.904  -0.080   0.000  0.00  0.00    +0.000 C 
ATOM      8  C   UNL     1       1.904   0.745   0.000  0.00  0.00    +0.000 C 
BRANCH   7   9
ATOM      9  C   UNL     1       2.618  -0.492   0.000  0.00  0.00    +0.000 C 
ATOM     10  O   UNL     1       3.333  -0.080   0.000  0.00  0.00    +0.000 OA
ATOM     11  O   UNL     1       2.618  -1.317   0.000  0.00  0.00    +0.000 OA
ENDBRANCH   7   9
ENDBRANCH   6   7
ENDBRANCH   2   6
ENDBRANCH   1   2
BRANCH   1  12
ATOM     12  C   UNL     1      -0.954  -0.080   0.000  0.00  0.00    +0.000 C 
BRANCH  12  13
ATOM     13  C   UNL     1      -0.954   0.745   0.000  0.00  0.00    +0.000 C 
ATOM     14  O   UNL     1      -0.240   1.158   0.000  0.00  0.00    +0.000 OA
ATOM     15  O   UNL     1      -1.669   1.158   0.000  0.00  0.00    +0.000 OA
ENDBRANCH  12  13
BRANCH  12  16
ATOM     16  C   UNL     1      -1.669  -0.492   0.000  0.00  0.00    +0.000 C 
BRANCH  16  17
ATOM     17  C   UNL     1      -2.383  -0.080   0.000  0.00  0.00    +0.000 C 
BRANCH  17  20
ATOM     18  O   UNL     1      -3.098  -1.317   0.000  0.00  0.00    +0.000 OA
ATOM     19  O   UNL     1      -3.812  -0.080   0.000  0.00  0.00    +0.000 OA
ATOM     20  C   UNL     1      -3.098  -0.492   0.000  0.00  0.00    +0.000 C 
ENDBRANCH  17  20
ENDBRANCH  16  17
ENDBRANCH  12  16
ENDBRANCH   1  12
TORSDOF 10
