REMARK  Name = PB2
REMARK  3 active torsions:
REMARK  status: ('A' for Active; 'I' for Inactive)
REMARK    1  A    between atoms: C_6  and  C_7
REMARK    2  A    between atoms: C_12  and  C_13
REMARK    3  A    between atoms: C_13  and  N_14
REMARK                            x       y       z     vdW  Elec       q    Type
REMARK                         _______ _______ _______ _____ _____    ______ ____
ROOT
ATOM      1  C   UNL     1      -0.570   0.601   0.000  0.00  0.00    +0.000 A 
ATOM      2  C   UNL     1       0.144   1.013   0.000  0.00  0.00    +0.000 A 
ATOM      3  C   UNL     1       0.859   0.601   0.000  0.00  0.00    +0.000 A 
ATOM      4  C   UNL     1      -0.570  -0.225   0.000  0.00  0.00    +0.000 A 
ATOM      5  C   UNL     1       0.144  -0.637   0.000  0.00  0.00    +0.000 A 
ATOM      6  C   UNL     1       0.859  -0.225   0.000  0.00  0.00    +0.000 A 
ENDROOT
BRANCH   1  12
ATOM      7  C   UNL     1      -1.999   0.601   0.000  0.00  0.00    +0.000 A 
ATOM      8  C   UNL     1      -2.713   1.013   0.000  0.00  0.00    +0.000 A 
ATOM      9  C   UNL     1      -2.713   1.838   0.000  0.00  0.00    +0.000 A 
ATOM     10  C   UNL     1      -1.999   2.251   0.000  0.00  0.00    +0.000 A 
ATOM     11  C   UNL     1      -1.284   1.838   0.000  0.00  0.00    +0.000 A 
ATOM     12  C   UNL     1      -1.284   1.013   0.000  0.00  0.00    +0.000 A 
ENDBRANCH   1  12
BRANCH   6  13
ATOM     13  C   UNL     1       1.573  -0.637   0.000  0.00  0.00    +0.000 C 
BRANCH  13  14
ATOM     14  N   UNL     1       1.573  -1.462   0.000  0.00  0.00    +0.000 N 
ATOM     15  C   UNL     1       2.241  -1.947   0.000  0.00  0.00    +0.000 A 
ATOM     16  C   UNL     1       1.986  -2.732   0.000  0.00  0.00    +0.000 A 
ATOM     17  N   UNL     1       1.161  -2.732   0.000  0.00  0.00    +0.000 NA
ATOM     18  C   UNL     1       0.906  -1.947   0.000  0.00  0.00    +0.000 A 
ENDBRANCH  13  14
ENDBRANCH   6  13
TORSDOF 3
