REMARK  Name = PB3
REMARK  6 active torsions:
REMARK  status: ('A' for Active; 'I' for Inactive)
REMARK    1  A    between atoms: C_1  and  C_10
REMARK    2  A    between atoms: C_3  and  C_7
REMARK    3  A    between atoms: C_8  and  C_9
REMARK    4  A    between atoms: C_8  and  N_19
REMARK    5  A    between atoms: N_20  and  C_21
REMARK    6  A    between atoms: C_21  and  C_22
REMARK                            x       y       z     vdW  Elec       q    Type
REMARK                         _______ _______ _______ _____ _____    ______ ____
ROOT
ATOM      1  C   UNL     1       0.031   0.656   0.000  0.00  0.00    +0.000 A 
ATOM      2  C   UNL     1       0.746   0.244   0.000  0.00  0.00    +0.000 A 
ATOM      3  C   UNL     1       0.746  -0.581   0.000  0.00  0.00    +0.000 A 
ATOM      4  N   UNL     1      -0.683   0.244   0.000  0.00  0.00    +0.000 NA
ATOM      5  N   UNL     1       0.031  -0.994   0.000  0.00  0.00    +0.000 NA
ATOM      6  C   UNL     1      -0.683  -0.581   0.000  0.00  0.00    +0.000 A 
ENDROOT
BRANCH   3   7
ATOM      7  C   UNL     1       1.460  -0.994   0.000  0.00  0.00    +0.000 C 
ATOM      8  N   UNL     1       1.460  -1.819   0.000  0.00  0.00    +0.000 NA
ATOM      9  O   UNL     1       2.175  -0.581   0.000  0.00  0.00    +0.000 OA
BRANCH   8  10
ATOM     10  C   UNL     1       2.175  -2.231   0.000  0.00  0.00    +0.000 C 
BRANCH  10  12
ATOM     11  C   UNL     1       0.746  -4.706   0.000  0.00  0.00    +0.000 C 
ATOM     12  C   UNL     1       2.175  -3.056   0.000  0.00  0.00    +0.000 A 
ATOM     13  C   UNL     1       2.889  -3.469   0.000  0.00  0.00    +0.000 A 
ATOM     14  C   UNL     1       2.889  -4.294   0.000  0.00  0.00    +0.000 A 
ATOM     15  C   UNL     1       2.175  -4.706   0.000  0.00  0.00    +0.000 A 
ATOM     16  C   UNL     1       1.460  -3.469   0.000  0.00  0.00    +0.000 A 
ATOM     17  C   UNL     1       1.460  -4.294   0.000  0.00  0.00    +0.000 A 
ENDBRANCH  10  12
ENDBRANCH   8  10
ENDBRANCH   3   7
BRANCH   1  18
ATOM     18  C   UNL     1       0.031   1.481   0.000  0.00  0.00    +0.000 C 
ATOM     19  N   UNL     1      -0.683   1.894   0.000  0.00  0.00    +0.000 NA
ATOM     20  O   UNL     1       0.746   1.894   0.000  0.00  0.00    +0.000 OA
BRANCH  19  21
ATOM     21  C   UNL     1      -0.683   2.719   0.000  0.00  0.00    +0.000 C 
BRANCH  21  25
ATOM     22  C   UNL     1      -2.112   5.194   0.000  0.00  0.00    +0.000 C 
ATOM     23  C   UNL     1      -1.398   3.956   0.000  0.00  0.00    +0.000 A 
ATOM     24  C   UNL     1      -2.827   3.131   0.000  0.00  0.00    +0.000 A 
ATOM     25  C   UNL     1      -1.398   3.131   0.000  0.00  0.00    +0.000 A 
ATOM     26  C   UNL     1      -2.112   4.369   0.000  0.00  0.00    +0.000 A 
ATOM     27  C   UNL     1      -2.827   3.956   0.000  0.00  0.00    +0.000 A 
ATOM     28  C   UNL     1      -2.112   2.719   0.000  0.00  0.00    +0.000 A 
ENDBRANCH  21  25
ENDBRANCH  19  21
ENDBRANCH   1  18
TORSDOF 6
