REMARK  Name = PB4
REMARK  6 active torsions:
REMARK  status: ('A' for Active; 'I' for Inactive)
REMARK    1  A    between atoms: C_1  and  C_9
REMARK    2  A    between atoms: C_3  and  C_6
REMARK    3  A    between atoms: C_7  and  C_8
REMARK    4  A    between atoms: C_7  and  N_21
REMARK    5  A    between atoms: C_10  and  C_11
REMARK    6  A    between atoms: C_10  and  N_22
REMARK                            x       y       z     vdW  Elec       q    Type
REMARK                         _______ _______ _______ _____ _____    ______ ____
ROOT
ATOM      1  C   UNL     1      -0.547   0.741   0.000  0.00  0.00    +0.000 A 
ATOM      2  C   UNL     1       0.167   0.329   0.000  0.00  0.00    +0.000 A 
ATOM      3  C   UNL     1       0.167  -0.496   0.000  0.00  0.00    +0.000 A 
ATOM      4  N   UNL     1      -0.547  -0.909   0.000  0.00  0.00    +0.000 NA
ATOM      5  C   UNL     1      -1.262  -0.496   0.000  0.00  0.00    +0.000 A 
ATOM      6  N   UNL     1      -1.262   0.329   0.000  0.00  0.00    +0.000 NA
ENDROOT
BRANCH   3   7
ATOM      7  C   UNL     1       0.882  -0.909   0.000  0.00  0.00    +0.000 C 
ATOM      8  N   UNL     1       0.882  -1.734   0.000  0.00  0.00    +0.000 NA
ATOM      9  O   UNL     1       1.596  -0.496   0.000  0.00  0.00    +0.000 OA
BRANCH   8  10
ATOM     10  C   UNL     1       1.596  -2.146   0.000  0.00  0.00    +0.000 C 
BRANCH  10  12
ATOM     11  C   UNL     1       0.167  -4.621   0.000  0.00  0.00    +0.000 C 
ATOM     12  C   UNL     1       1.596  -2.971   0.000  0.00  0.00    +0.000 A 
ATOM     13  C   UNL     1       2.311  -3.384   0.000  0.00  0.00    +0.000 A 
ATOM     14  C   UNL     1       2.311  -4.209   0.000  0.00  0.00    +0.000 A 
ATOM     15  C   UNL     1       1.596  -4.621   0.000  0.00  0.00    +0.000 A 
ATOM     16  C   UNL     1       0.882  -3.384   0.000  0.00  0.00    +0.000 A 
ATOM     17  C   UNL     1       0.882  -4.209   0.000  0.00  0.00    +0.000 A 
ATOM     18  F   UNL     1       1.596  -5.446   0.000  0.00  0.00    +0.000 F 
ENDBRANCH  10  12
ENDBRANCH   8  10
ENDBRANCH   3   7
BRANCH   1  19
ATOM     19  C   UNL     1      -0.547   1.566   0.000  0.00  0.00    +0.000 C 
ATOM     20  N   UNL     1       0.167   1.979   0.000  0.00  0.00    +0.000 NA
ATOM     21  O   UNL     1      -1.262   1.979   0.000  0.00  0.00    +0.000 OA
BRANCH  20  22
ATOM     22  C   UNL     1       0.167   2.804   0.000  0.00  0.00    +0.000 C 
BRANCH  22  24
ATOM     23  C   UNL     1      -2.691   2.804   0.000  0.00  0.00    +0.000 C 
ATOM     24  C   UNL     1      -0.547   3.216   0.000  0.00  0.00    +0.000 A 
ATOM     25  C   UNL     1      -1.262   2.804   0.000  0.00  0.00    +0.000 A 
ATOM     26  C   UNL     1      -1.976   4.041   0.000  0.00  0.00    +0.000 A 
ATOM     27  C   UNL     1      -1.976   3.216   0.000  0.00  0.00    +0.000 A 
ATOM     28  C   UNL     1      -1.262   4.454   0.000  0.00  0.00    +0.000 A 
ATOM     29  C   UNL     1      -0.547   4.041   0.000  0.00  0.00    +0.000 A 
ATOM     30  F   UNL     1      -2.691   4.454   0.000  0.00  0.00    +0.000 F 
ENDBRANCH  22  24
ENDBRANCH  20  22
ENDBRANCH   1  19
TORSDOF 6
