REMARK  Name = PB5
REMARK  6 active torsions:
REMARK  status: ('A' for Active; 'I' for Inactive)
REMARK    1  A    between atoms: C_1  and  C_8
REMARK    2  A    between atoms: C_3  and  C_5
REMARK    3  A    between atoms: C_6  and  C_7
REMARK    4  A    between atoms: C_6  and  N_17
REMARK    5  A    between atoms: N_18  and  C_19
REMARK    6  A    between atoms: C_19  and  C_20
REMARK                            x       y       z     vdW  Elec       q    Type
REMARK                         _______ _______ _______ _____ _____    ______ ____
ROOT
ATOM      1  C   UNL     1      -0.258   0.752   0.000  0.00  0.00    +0.000 A 
ATOM      2  C   UNL     1       0.456   0.340   0.000  0.00  0.00    +0.000 A 
ATOM      3  C   UNL     1       0.456  -0.485   0.000  0.00  0.00    +0.000 A 
ATOM      4  N   UNL     1      -0.973   0.340   0.000  0.00  0.00    +0.000 NA
ATOM      5  N   UNL     1      -0.258  -0.898   0.000  0.00  0.00    +0.000 NA
ATOM      6  C   UNL     1      -0.973  -0.485   0.000  0.00  0.00    +0.000 A 
ENDROOT
BRANCH   1   7
ATOM      7  C   UNL     1      -0.258   1.577   0.000  0.00  0.00    +0.000 C 
ATOM      8  N   UNL     1      -0.973   1.990   0.000  0.00  0.00    +0.000 NA
ATOM      9  O   UNL     1       0.456   1.990   0.000  0.00  0.00    +0.000 OA
BRANCH   8  10
ATOM     10  C   UNL     1      -0.973   2.815   0.000  0.00  0.00    +0.000 C 
BRANCH  10  13
ATOM     11  C   UNL     1      -1.687   4.052   0.000  0.00  0.00    +0.000 A 
ATOM     12  C   UNL     1      -3.116   3.227   0.000  0.00  0.00    +0.000 A 
ATOM     13  C   UNL     1      -1.687   3.227   0.000  0.00  0.00    +0.000 A 
ATOM     14  N   UNL     1      -2.402   4.465   0.000  0.00  0.00    +0.000 NA
ATOM     15  C   UNL     1      -3.116   4.052   0.000  0.00  0.00    +0.000 A 
ATOM     16  C   UNL     1      -2.402   2.815   0.000  0.00  0.00    +0.000 A 
ENDBRANCH  10  13
ENDBRANCH   8  10
ENDBRANCH   1   7
BRANCH   3  17
ATOM     17  C   UNL     1       1.171  -0.898   0.000  0.00  0.00    +0.000 C 
ATOM     18  N   UNL     1       1.171  -1.723   0.000  0.00  0.00    +0.000 NA
ATOM     19  O   UNL     1       1.885  -0.485   0.000  0.00  0.00    +0.000 OA
BRANCH  18  20
ATOM     20  C   UNL     1       1.885  -2.135   0.000  0.00  0.00    +0.000 C 
BRANCH  20  21
ATOM     21  C   UNL     1       1.885  -2.960   0.000  0.00  0.00    +0.000 A 
ATOM     22  C   UNL     1       2.600  -3.373   0.000  0.00  0.00    +0.000 A 
ATOM     23  C   UNL     1       2.600  -4.198   0.000  0.00  0.00    +0.000 A 
ATOM     24  C   UNL     1       1.885  -4.610   0.000  0.00  0.00    +0.000 A 
ATOM     25  C   UNL     1       1.171  -3.373   0.000  0.00  0.00    +0.000 A 
ATOM     26  N   UNL     1       1.171  -4.198   0.000  0.00  0.00    +0.000 NA
ENDBRANCH  20  21
ENDBRANCH  18  20
ENDBRANCH   3  17
TORSDOF 6
