REMARK  Name = PBB
REMARK  5 active torsions:
REMARK  status: ('A' for Active; 'I' for Inactive)
REMARK    1  A    between atoms: C_1  and  C_2
REMARK    2  A    between atoms: C_1  and  C_6
REMARK    3  A    between atoms: C_6  and  S_7
REMARK    4  A    between atoms: S_7  and  C_15
REMARK    5  A    between atoms: C_9  and  C_15
REMARK                            x       y       z     vdW  Elec       q    Type
REMARK                         _______ _______ _______ _____ _____    ______ ____
ROOT
ATOM      1  C   UNK     1       0.349   0.333   0.000  0.00  0.00    +0.000 C 
ENDROOT
BRANCH   1   3
ATOM      2 BR   UNK     1       3.207  -1.317   0.000  0.00  0.00    +0.000 Br
ATOM      3  C   UNK     1       1.063  -0.080   0.000  0.00  0.00    +0.000 A 
ATOM      4  C   UNK     1       1.778   0.333   0.000  0.00  0.00    +0.000 A 
ATOM      5  C   UNK     1       2.492  -0.080   0.000  0.00  0.00    +0.000 A 
ATOM      6  C   UNK     1       2.492  -0.905   0.000  0.00  0.00    +0.000 A 
ATOM      7  C   UNK     1       1.778  -1.317   0.000  0.00  0.00    +0.000 A 
ATOM      8  C   UNK     1       1.063  -0.905   0.000  0.00  0.00    +0.000 A 
ENDBRANCH   1   3
BRANCH   1   9
ATOM      9  S   UNK     1      -0.366  -0.080   0.000  0.00  0.00    +0.000 S 
BRANCH   9  10
ATOM     10  C   UNK     1      -1.080   0.333   0.000  0.00  0.00    +0.000 C 
BRANCH  10  11
ATOM     11  C   UNK     1      -1.794  -0.080   0.000  0.00  0.00    +0.000 C 
ATOM     12  N   UNK     1      -1.794  -0.905   0.000  0.00  0.00    +0.000 NA
BRANCH  11  13
ATOM     13  C   UNK     1      -2.509   0.333   0.000  0.00  0.00    +0.000 C 
ATOM     14  O   UNK     1      -3.224  -0.080   0.000  0.00  0.00    +0.000 OA
ATOM     15  O   UNK     1      -2.509   1.158   0.000  0.00  0.00    +0.000 OA
ENDBRANCH  11  13
ENDBRANCH  10  11
ENDBRANCH   9  10
ENDBRANCH   1   9
TORSDOF 5
