REMARK  Name = PC(16:0/16:0)
REMARK  40 active torsions:
REMARK  status: ('A' for Active; 'I' for Inactive)
REMARK    1  A    between atoms: C_1  and  C_2
REMARK    2  A    between atoms: C_1  and  O_4
REMARK    3  A    between atoms: C_2  and  C_3
REMARK    4  A    between atoms: C_2  and  O_6
REMARK    5  A    between atoms: C_3  and  O_5
REMARK    6  A    between atoms: O_4  and  P_7
REMARK    7  A    between atoms: O_5  and  C_18
REMARK    8  A    between atoms: O_6  and  C_35
REMARK    9  A    between atoms: P_7  and  O_10
REMARK   10  A    between atoms: O_10  and  C_11
REMARK   11  A    between atoms: C_11  and  C_12
REMARK   12  A    between atoms: C_12  and  N_13
REMARK   13  A    between atoms: C_18  and  C_20
REMARK   14  A    between atoms: C_20  and  C_21
REMARK   15  A    between atoms: C_21  and  C_22
REMARK   16  A    between atoms: C_22  and  C_23
REMARK   17  A    between atoms: C_23  and  C_24
REMARK   18  A    between atoms: C_24  and  C_25
REMARK   19  A    between atoms: C_25  and  C_26
REMARK   20  A    between atoms: C_26  and  C_27
REMARK   21  A    between atoms: C_27  and  C_28
REMARK   22  A    between atoms: C_28  and  C_29
REMARK   23  A    between atoms: C_29  and  C_30
REMARK   24  A    between atoms: C_30  and  C_31
REMARK   25  A    between atoms: C_31  and  C_32
REMARK   26  A    between atoms: C_32  and  C_33
REMARK   27  A    between atoms: C_35  and  C_37
REMARK   28  A    between atoms: C_37  and  C_38
REMARK   29  A    between atoms: C_38  and  C_39
REMARK   30  A    between atoms: C_39  and  C_40
REMARK   31  A    between atoms: C_40  and  C_41
REMARK   32  A    between atoms: C_41  and  C_42
REMARK   33  A    between atoms: C_42  and  C_43
REMARK   34  A    between atoms: C_43  and  C_44
REMARK   35  A    between atoms: C_44  and  C_45
REMARK   36  A    between atoms: C_45  and  C_46
REMARK   37  A    between atoms: C_46  and  C_47
REMARK   38  A    between atoms: C_47  and  C_48
REMARK   39  A    between atoms: C_48  and  C_49
REMARK   40  A    between atoms: C_49  and  C_50
REMARK                            x       y       z     vdW  Elec       q    Type
REMARK                         _______ _______ _______ _____ _____    ______ ____
ROOT
ATOM      1  C   UNL     1      16.585 -10.597   0.000  0.00  0.00    +0.000 C 
ENDROOT
BRANCH   1   2
ATOM      2  O   UNL     1      16.585 -11.412   0.000  0.00  0.00    +0.000 OA
BRANCH   2   3
ATOM      3  C   UNL     1      15.871 -11.824   0.000  0.00  0.00    +0.000 C 
ATOM      4  O   UNL     1      15.871 -12.595   0.000  0.00  0.00    +0.000 OA
BRANCH   3   5
ATOM      5  C   UNL     1      15.157 -11.411   0.000  0.00  0.00    +0.000 C 
BRANCH   5   6
ATOM      6  C   UNL     1      14.443 -11.824   0.000  0.00  0.00    +0.000 C 
BRANCH   6   7
ATOM      7  C   UNL     1      13.729 -11.411   0.000  0.00  0.00    +0.000 C 
BRANCH   7   8
ATOM      8  C   UNL     1      13.014 -11.824   0.000  0.00  0.00    +0.000 C 
BRANCH   8   9
ATOM      9  C   UNL     1      12.300 -11.411   0.000  0.00  0.00    +0.000 C 
BRANCH   9  10
ATOM     10  C   UNL     1      11.586 -11.824   0.000  0.00  0.00    +0.000 C 
BRANCH  10  11
ATOM     11  C   UNL     1      10.872 -11.411   0.000  0.00  0.00    +0.000 C 
BRANCH  11  12
ATOM     12  C   UNL     1      10.158 -11.824   0.000  0.00  0.00    +0.000 C 
BRANCH  12  13
ATOM     13  C   UNL     1       9.444 -11.411   0.000  0.00  0.00    +0.000 C 
BRANCH  13  14
ATOM     14  C   UNL     1       8.730 -11.824   0.000  0.00  0.00    +0.000 C 
BRANCH  14  15
ATOM     15  C   UNL     1       8.016 -11.411   0.000  0.00  0.00    +0.000 C 
BRANCH  15  16
ATOM     16  C   UNL     1       7.301 -11.824   0.000  0.00  0.00    +0.000 C 
BRANCH  16  17
ATOM     17  C   UNL     1       6.587 -11.411   0.000  0.00  0.00    +0.000 C 
BRANCH  17  18
ATOM     18  C   UNL     1       5.873 -11.824   0.000  0.00  0.00    +0.000 C 
ATOM     19  C   UNL     1       5.159 -11.411   0.000  0.00  0.00    +0.000 C 
ENDBRANCH  17  18
ENDBRANCH  16  17
ENDBRANCH  15  16
ENDBRANCH  14  15
ENDBRANCH  13  14
ENDBRANCH  12  13
ENDBRANCH  11  12
ENDBRANCH  10  11
ENDBRANCH   9  10
ENDBRANCH   8   9
ENDBRANCH   7   8
ENDBRANCH   6   7
ENDBRANCH   5   6
ENDBRANCH   3   5
ENDBRANCH   2   3
ENDBRANCH   1   2
BRANCH   1  20
ATOM     20  C   UNL     1      17.291 -10.190   0.000  0.00  0.00    +0.000 C 
BRANCH  20  21
ATOM     21  O   UNL     1      17.996 -10.597   0.000  0.00  0.00    +0.000 OA
BRANCH  21  22
ATOM     22  P   UNL     1      18.701 -10.190   0.000  0.00  0.00    +0.000 P 
ATOM     23  O   UNL     1      19.108 -10.895   0.000  0.00  0.00    +0.000 OA
ATOM     24  O   UNL     1      18.294  -9.485   0.000  0.00  0.00    +0.000 OA
BRANCH  22  25
ATOM     25  O   UNL     1      19.406  -9.783   0.000  0.00  0.00    +0.000 OA
BRANCH  25  26
ATOM     26  C   UNL     1      20.111 -10.190   0.000  0.00  0.00    +0.000 C 
BRANCH  26  27
ATOM     27  C   UNL     1      20.817  -9.783   0.000  0.00  0.00    +0.000 C 
BRANCH  27  28
ATOM     28  N   UNL     1      21.522 -10.190   0.000  0.00  0.00    +0.000 N 
ATOM     29  C   UNL     1      21.115 -10.895   0.000  0.00  0.00    +0.000 C 
ATOM     30  C   UNL     1      22.175  -9.338   0.000  0.00  0.00    +0.000 C 
ATOM     31  C   UNL     1      22.227 -10.597   0.000  0.00  0.00    +0.000 C 
ENDBRANCH  27  28
ENDBRANCH  26  27
ENDBRANCH  25  26
ENDBRANCH  22  25
ENDBRANCH  21  22
ENDBRANCH  20  21
ENDBRANCH   1  20
BRANCH   1  32
ATOM     32  C   UNL     1      15.880 -10.190   0.000  0.00  0.00    +0.000 C 
BRANCH  32  33
ATOM     33  O   UNL     1      15.175 -10.597   0.000  0.00  0.00    +0.000 OA
BRANCH  33  34
ATOM     34  C   UNL     1      14.461 -10.185   0.000  0.00  0.00    +0.000 C 
ATOM     35  O   UNL     1      14.461  -9.413   0.000  0.00  0.00    +0.000 OA
BRANCH  34  36
ATOM     36  C   UNL     1      13.746 -10.598   0.000  0.00  0.00    +0.000 C 
BRANCH  36  37
ATOM     37  C   UNL     1      13.032 -10.185   0.000  0.00  0.00    +0.000 C 
BRANCH  37  38
ATOM     38  C   UNL     1      12.318 -10.598   0.000  0.00  0.00    +0.000 C 
BRANCH  38  39
ATOM     39  C   UNL     1      11.604 -10.185   0.000  0.00  0.00    +0.000 C 
BRANCH  39  40
ATOM     40  C   UNL     1      10.890 -10.598   0.000  0.00  0.00    +0.000 C 
BRANCH  40  41
ATOM     41  C   UNL     1      10.176 -10.185   0.000  0.00  0.00    +0.000 C 
BRANCH  41  42
ATOM     42  C   UNL     1       9.462 -10.598   0.000  0.00  0.00    +0.000 C 
BRANCH  42  43
ATOM     43  C   UNL     1       8.748 -10.185   0.000  0.00  0.00    +0.000 C 
BRANCH  43  44
ATOM     44  C   UNL     1       8.033 -10.598   0.000  0.00  0.00    +0.000 C 
BRANCH  44  45
ATOM     45  C   UNL     1       7.319 -10.185   0.000  0.00  0.00    +0.000 C 
BRANCH  45  46
ATOM     46  C   UNL     1       6.605 -10.598   0.000  0.00  0.00    +0.000 C 
BRANCH  46  47
ATOM     47  C   UNL     1       5.891 -10.185   0.000  0.00  0.00    +0.000 C 
BRANCH  47  48
ATOM     48  C   UNL     1       5.177 -10.598   0.000  0.00  0.00    +0.000 C 
BRANCH  48  49
ATOM     49  C   UNL     1       4.463 -10.185   0.000  0.00  0.00    +0.000 C 
ATOM     50  C   UNL     1       3.749 -10.598   0.000  0.00  0.00    +0.000 C 
ENDBRANCH  48  49
ENDBRANCH  47  48
ENDBRANCH  46  47
ENDBRANCH  45  46
ENDBRANCH  44  45
ENDBRANCH  43  44
ENDBRANCH  42  43
ENDBRANCH  41  42
ENDBRANCH  40  41
ENDBRANCH  39  40
ENDBRANCH  38  39
ENDBRANCH  37  38
ENDBRANCH  36  37
ENDBRANCH  34  36
ENDBRANCH  33  34
ENDBRANCH  32  33
ENDBRANCH   1  32
TORSDOF 40
