REMARK  Name = PC0
REMARK  8 active torsions:
REMARK  status: ('A' for Active; 'I' for Inactive)
REMARK    1  A    between atoms: C_1  and  N_8
REMARK    2  A    between atoms: N_8  and  C_9
REMARK    3  A    between atoms: C_9  and  N_11
REMARK    4  A    between atoms: N_11  and  C_12
REMARK    5  A    between atoms: C_12  and  C_13
REMARK    6  A    between atoms: C_13  and  C_14
REMARK    7  A    between atoms: C_18  and  O_20
REMARK    8  A    between atoms: O_20  and  C_21
REMARK                            x       y       z     vdW  Elec       q    Type
REMARK                         _______ _______ _______ _____ _____    ______ ____
ROOT
ATOM      1  C   UNL     1       0.121   0.035   0.000  0.00  0.00    +0.000 C 
ENDROOT
BRANCH   1   2
ATOM      2  N   UNL     1      -0.593  -0.377   0.000  0.00  0.00    +0.000 NA
BRANCH   2   3
ATOM      3  C   UNL     1      -1.308   0.035   0.000  0.00  0.00    +0.000 C 
ATOM      4  S   UNL     1      -1.308   0.860   0.000  0.00  0.00    +0.000 S 
BRANCH   3   5
ATOM      5  N   UNL     1      -2.022  -0.377   0.000  0.00  0.00    +0.000 NA
BRANCH   5   6
ATOM      6  C   UNL     1      -2.737   0.035   0.000  0.00  0.00    +0.000 A 
ATOM      7  N   UNL     1      -3.451  -0.377   0.000  0.00  0.00    +0.000 NA
ATOM      8  C   UNL     1      -4.166   0.035   0.000  0.00  0.00    +0.000 A 
ATOM      9  C   UNL     1      -4.166   0.860   0.000  0.00  0.00    +0.000 A 
ATOM     10  C   UNL     1      -3.451   1.273   0.000  0.00  0.00    +0.000 A 
ATOM     11  C   UNL     1      -2.737   0.860   0.000  0.00  0.00    +0.000 A 
ATOM     12  C   UNL     1      -4.880   1.273   0.000  0.00  0.00    +0.000 C 
ENDBRANCH   5   6
ENDBRANCH   3   5
ENDBRANCH   2   3
ENDBRANCH   1   2
BRANCH   1  13
ATOM     13  C   UNL     1       0.836  -0.377   0.000  0.00  0.00    +0.000 C 
BRANCH  13  14
ATOM     14  C   UNL     1       1.550   0.035   0.000  0.00  0.00    +0.000 A 
ATOM     15  N   UNL     1       1.550   0.860   0.000  0.00  0.00    +0.000 NA
ATOM     16  C   UNL     1       2.265   1.273   0.000  0.00  0.00    +0.000 A 
ATOM     17  C   UNL     1       2.979   0.860   0.000  0.00  0.00    +0.000 A 
ATOM     18  C   UNL     1       2.979   0.035   0.000  0.00  0.00    +0.000 A 
ATOM     19  C   UNL     1       2.265  -0.377   0.000  0.00  0.00    +0.000 A 
ATOM     20  F   UNL     1       2.265  -1.202   0.000  0.00  0.00    +0.000 F 
BRANCH  18  21
ATOM     21  O   UNL     1       3.694  -0.377   0.000  0.00  0.00    +0.000 OA
BRANCH  21  22
ATOM     22  C   UNL     1       3.694  -1.202   0.000  0.00  0.00    +0.000 C 
ATOM     23  C   UNL     1       4.408  -1.615   0.000  0.00  0.00    +0.000 C 
ENDBRANCH  21  22
ENDBRANCH  18  21
ENDBRANCH  13  14
ENDBRANCH   1  13
TORSDOF 8
