REMARK  Name = PCB
REMARK  3 active torsions:
REMARK  status: ('A' for Active; 'I' for Inactive)
REMARK    1  A    between atoms: C_1  and  C_13
REMARK    2  A    between atoms: C_5  and  S_9
REMARK    3  A    between atoms: C_17  and  S_21
REMARK                            x       y       z     vdW  Elec       q    Type
REMARK                         _______ _______ _______ _____ _____    ______ ____
ROOT
ATOM      1  C   UNL     1       0.352  -0.413   0.000  0.00  0.00    +0.000 A 
ATOM      2  C   UNL     1       1.067  -0.825   0.000  0.00  0.00    +0.000 A 
ATOM      3 CL   UNL     1       1.782  -0.413   0.000  0.00  0.00    +0.000 Cl
ATOM      4  C   UNL     1       1.067  -1.650   0.000  0.00  0.00    +0.000 A 
ATOM      5  C   UNL     1       0.352  -2.063   0.000  0.00  0.00    +0.000 A 
ATOM      6  C   UNL     1      -0.362  -1.650   0.000  0.00  0.00    +0.000 A 
ATOM      7 CL   UNL     1      -1.076  -2.063   0.000  0.00  0.00    +0.000 Cl
ATOM      8  C   UNL     1      -0.362  -0.825   0.000  0.00  0.00    +0.000 A 
ENDROOT
BRANCH   1   9
ATOM      9  C   UNL     1       0.352   0.412   0.000  0.00  0.00    +0.000 A 
ATOM     10  C   UNL     1      -0.362   0.825   0.000  0.00  0.00    +0.000 A 
ATOM     11 CL   UNL     1      -1.076   0.412   0.000  0.00  0.00    +0.000 Cl
ATOM     12  C   UNL     1      -0.362   1.650   0.000  0.00  0.00    +0.000 A 
ATOM     13  C   UNL     1       0.352   2.062   0.000  0.00  0.00    +0.000 A 
ATOM     14  C   UNL     1       1.067   1.650   0.000  0.00  0.00    +0.000 A 
ATOM     15 CL   UNL     1       1.782   2.062   0.000  0.00  0.00    +0.000 Cl
ATOM     16  C   UNL     1       1.067   0.825   0.000  0.00  0.00    +0.000 A 
BRANCH  13  17
ATOM     17  S   UNL     1       0.352   2.887   0.000  0.00  0.00    +0.000 S 
ATOM     18  O   UNL     1       0.352   3.712   0.000  0.00  0.00    +0.000 OA
ATOM     19  O   UNL     1       1.177   2.887   0.000  0.00  0.00    +0.000 OA
ATOM     20  C   UNL     1      -0.472   2.887   0.000  0.00  0.00    +0.000 C 
ENDBRANCH  13  17
ENDBRANCH   1   9
BRANCH   5  21
ATOM     21  S   UNL     1       0.352  -2.888   0.000  0.00  0.00    +0.000 S 
ATOM     22  O   UNL     1       0.352  -3.713   0.000  0.00  0.00    +0.000 OA
ATOM     23  O   UNL     1       1.177  -2.888   0.000  0.00  0.00    +0.000 OA
ATOM     24  C   UNL     1      -0.472  -2.888   0.000  0.00  0.00    +0.000 C 
ENDBRANCH   5  21
TORSDOF 3
