REMARK  Name = PCQ
REMARK  1 active torsions:
REMARK  status: ('A' for Active; 'I' for Inactive)
REMARK    1  A    between atoms: C_4  and  C_13
REMARK                            x       y       z     vdW  Elec       q    Type
REMARK                         _______ _______ _______ _____ _____    ______ ____
ROOT
ATOM      1 CL   UNL     1       1.429  -2.026   0.000  0.00  0.00    +0.000 Cl
ATOM      2 CL   UNL     1      -1.429  -2.026   0.000  0.00  0.00    +0.000 Cl
ATOM      3  O   UNL     1       0.000  -2.851   0.000  0.00  0.00    +0.000 OA
ATOM      4  C   UNL     1       0.000  -0.376   0.000  0.00  0.00    +0.000 A 
ATOM      5  C   UNL     1       0.715  -0.789   0.000  0.00  0.00    +0.000 A 
ATOM      6  C   UNL     1       0.715  -1.614   0.000  0.00  0.00    +0.000 A 
ATOM      7  C   UNL     1       0.000  -2.026   0.000  0.00  0.00    +0.000 A 
ATOM      8  C   UNL     1      -0.715  -1.614   0.000  0.00  0.00    +0.000 A 
ATOM      9  C   UNL     1      -0.715  -0.789   0.000  0.00  0.00    +0.000 A 
ENDROOT
BRANCH   4  13
ATOM     10 CL   UNL     1      -1.429   2.099   0.000  0.00  0.00    +0.000 Cl
ATOM     11 CL   UNL     1       1.429   2.099   0.000  0.00  0.00    +0.000 Cl
ATOM     12  O   UNL     1       0.000   2.924   0.000  0.00  0.00    +0.000 OA
ATOM     13  C   UNL     1       0.000   0.449   0.000  0.00  0.00    +0.000 A 
ATOM     14  C   UNL     1      -0.715   0.861   0.000  0.00  0.00    +0.000 A 
ATOM     15  C   UNL     1      -0.715   1.686   0.000  0.00  0.00    +0.000 A 
ATOM     16  C   UNL     1       0.000   2.099   0.000  0.00  0.00    +0.000 A 
ATOM     17  C   UNL     1       0.715   1.686   0.000  0.00  0.00    +0.000 A 
ATOM     18  C   UNL     1       0.715   0.861   0.000  0.00  0.00    +0.000 A 
ENDBRANCH   4  13
TORSDOF 1
