REMARK  Name = PDE
REMARK  9 active torsions:
REMARK  status: ('A' for Active; 'I' for Inactive)
REMARK    1  A    between atoms: P_1  and  O_2
REMARK    2  A    between atoms: P_1  and  C_5
REMARK    3  A    between atoms: O_2  and  C_16
REMARK    4  A    between atoms: C_5  and  C_6
REMARK    5  A    between atoms: C_6  and  C_7
REMARK    6  A    between atoms: C_7  and  C_8
REMARK    7  A    between atoms: N_9  and  CA_11
REMARK    8  A    between atoms: CA_11  and  C_13
REMARK    9  A    between atoms: C_19  and  N_22
REMARK                            x       y       z     vdW  Elec       q    Type
REMARK                         _______ _______ _______ _____ _____    ______ ____
ROOT
ATOM      1  P   UNK A   0      -1.376   0.097   0.000  0.00  0.00    +0.000 P 
ATOM      2  O   UNK A   0      -1.070   0.863   0.000  0.00  0.00    +0.000 OA
ATOM      3  O   UNK A   0      -1.682  -0.669   0.000  0.00  0.00    +0.000 OA
ENDROOT
BRANCH   1   4
ATOM      4  O   UNK A   0      -2.142   0.403   0.000  0.00  0.00    +0.000 OA
BRANCH   4   5
ATOM      5  C   UNK A   0      -2.790  -0.107   0.000  0.00  0.00    +0.000 A 
ATOM      6  C   UNK A   0      -2.672  -0.924   0.000  0.00  0.00    +0.000 A 
ATOM      7  C   UNK A   0      -3.556   0.199   0.000  0.00  0.00    +0.000 A 
ATOM      8  C   UNK A   0      -4.087  -1.128   0.000  0.00  0.00    +0.000 A 
ATOM      9  C   UNK A   0      -4.205  -0.311   0.000  0.00  0.00    +0.000 A 
ATOM     10  C   UNK A   0      -3.321  -1.434   0.000  0.00  0.00    +0.000 A 
BRANCH   8  11
ATOM     11  N   UNK A   0      -4.735  -1.638   0.000  0.00  0.00    +0.000 N 
ATOM     12  O   UNK A   0      -4.617  -2.455   0.000  0.00  0.00    +0.000 OA
ATOM     13  O   UNK A   0      -5.501  -1.332   0.000  0.00  0.00    +0.000 OA
ENDBRANCH   8  11
ENDBRANCH   4   5
ENDBRANCH   1   4
BRANCH   1  14
ATOM     14  C   UNK A   0      -0.610  -0.209   0.000  0.00  0.00    +0.000 C 
BRANCH  14  15
ATOM     15  C   UNK A   0       0.038   0.301   0.000  0.00  0.00    +0.000 C 
BRANCH  15  16
ATOM     16  C   UNK A   0       0.804  -0.005   0.000  0.00  0.00    +0.000 C 
BRANCH  16  17
ATOM     17  C   UNK A   0       1.453   0.505   0.000  0.00  0.00    +0.000 C 
ATOM     18  N   ALA A   1       2.219   0.199   0.000  0.00  0.00    +0.000 NA
ATOM     19  O   UNK A   0       1.335   1.322   0.000  0.00  0.00    +0.000 OA
BRANCH  18  20
ATOM     20  CA  ALA A   1       2.867   0.709   0.000  0.00  0.00    +0.000 C 
ATOM     21  CB  ALA A   1       2.749   1.526   0.000  0.00  0.00    +0.000 C 
BRANCH  20  22
ATOM     22  C   ALA A   1       3.633   0.403   0.000  0.00  0.00    +0.000 C 
ATOM     23  O   ALA A   1       4.281   0.913   0.000  0.00  0.00    +0.000 OA
ATOM     24  OXT ALA A   1       3.751  -0.413   0.000  0.00  0.00    +0.000 OA
ENDBRANCH  20  22
ENDBRANCH  18  20
ENDBRANCH  16  17
ENDBRANCH  15  16
ENDBRANCH  14  15
ENDBRANCH   1  14
TORSDOF 9
