REMARK  Name = PDM
REMARK  6 active torsions:
REMARK  status: ('A' for Active; 'I' for Inactive)
REMARK    1  A    between atoms: C_1  and  N_12
REMARK    2  A    between atoms: C_4  and  N_13
REMARK    3  A    between atoms: C_7  and  C_8
REMARK    4  A    between atoms: C_7  and  N_13
REMARK    5  A    between atoms: C_8  and  C_9
REMARK    6  A    between atoms: C_9  and  C_10
REMARK                            x       y       z     vdW  Elec       q    Type
REMARK                         _______ _______ _______ _____ _____    ______ ____
ROOT
ATOM      1  C   UNL     1       1.383  -0.285   0.000  0.00  0.00    +0.000 A 
ATOM      2  C   UNL     1       0.669  -0.697   0.000  0.00  0.00    +0.000 A 
ATOM      3  C   UNL     1      -0.045  -0.285   0.000  0.00  0.00    +0.000 A 
ATOM      4  C   UNL     1      -0.045   0.540   0.000  0.00  0.00    +0.000 A 
ATOM      5  C   UNL     1       0.669   0.953   0.000  0.00  0.00    +0.000 A 
ATOM      6  C   UNL     1       1.383   0.540   0.000  0.00  0.00    +0.000 A 
ENDROOT
BRANCH   1   8
ATOM      7  C   UNL     1       2.184  -1.518   0.000  0.00  0.00    +0.000 C 
ATOM      8  N   UNL     1       2.098  -0.697   0.000  0.00  0.00    +0.000 N 
ATOM      9  O   UNL     1       1.571  -2.070   0.000  0.00  0.00    +0.000 OA
ATOM     10  O   UNL     1       3.023   0.445   0.000  0.00  0.00    +0.000 OA
ATOM     11  C   UNL     1       2.991  -1.689   0.000  0.00  0.00    +0.000 C 
ATOM     12  C   UNL     1       2.852  -0.362   0.000  0.00  0.00    +0.000 C 
ATOM     13  C   UNL     1       3.404  -0.975   0.000  0.00  0.00    +0.000 C 
ENDBRANCH   1   8
BRANCH   4  14
ATOM     14  N   UNL     1      -0.760   0.953   0.000  0.00  0.00    +0.000 NA
BRANCH  14  15
ATOM     15  C   UNL     1      -1.474   0.540   0.000  0.00  0.00    +0.000 C 
ATOM     16  O   UNL     1      -1.474  -0.285   0.000  0.00  0.00    +0.000 OA
BRANCH  15  17
ATOM     17  C   UNL     1      -2.189   0.953   0.000  0.00  0.00    +0.000 C 
BRANCH  17  18
ATOM     18  C   UNL     1      -2.903   0.540   0.000  0.00  0.00    +0.000 C 
BRANCH  18  19
ATOM     19  C   UNL     1      -3.618   0.953   0.000  0.00  0.00    +0.000 C 
ATOM     20  O   UNL     1      -4.332   0.540   0.000  0.00  0.00    +0.000 OA
ATOM     21  O   UNL     1      -3.618   1.778   0.000  0.00  0.00    +0.000 OA
ENDBRANCH  18  19
ENDBRANCH  17  18
ENDBRANCH  15  17
ENDBRANCH  14  15
ENDBRANCH   4  14
TORSDOF 6
