REMARK  Name = PDZ
REMARK  4 active torsions:
REMARK  status: ('A' for Active; 'I' for Inactive)
REMARK    1  A    between atoms: C_5  and  O_7
REMARK    2  A    between atoms: O_7  and  C_8
REMARK    3  A    between atoms: C_12  and  C_14
REMARK    4  A    between atoms: C_14  and  C_17
REMARK                            x       y       z     vdW  Elec       q    Type
REMARK                         _______ _______ _______ _____ _____    ______ ____
ROOT
ATOM      1  C   UNL     1       0.364  -0.009   0.000  0.00  0.00    +0.000 A 
ATOM      2  C   UNL     1       1.079  -0.422   0.000  0.00  0.00    +0.000 A 
ATOM      3  C   UNL     1       1.079  -1.247   0.000  0.00  0.00    +0.000 A 
ATOM      4  C   UNL     1       0.364  -1.659   0.000  0.00  0.00    +0.000 A 
ATOM      5  C   UNL     1      -0.350  -1.247   0.000  0.00  0.00    +0.000 A 
ATOM      6  C   UNL     1      -0.350  -0.422   0.000  0.00  0.00    +0.000 A 
ATOM      7 CL   UNL     1       1.793  -0.009   0.000  0.00  0.00    +0.000 Cl
ATOM      8  F   UNL     1      -1.065  -0.009   0.000  0.00  0.00    +0.000 F 
ENDROOT
BRANCH   1   9
ATOM      9  O   UNL     1       0.364   0.816   0.000  0.00  0.00    +0.000 OA
BRANCH   9  14
ATOM     10  C   UNL     1       1.793   2.466   0.000  0.00  0.00    +0.000 A 
ATOM     11  C   UNL     1       2.507   2.053   0.000  0.00  0.00    +0.000 A 
ATOM     12  C   UNL     1       2.507   1.228   0.000  0.00  0.00    +0.000 A 
ATOM     13  C   UNL     1       1.793   0.816   0.000  0.00  0.00    +0.000 A 
ATOM     14  C   UNL     1       1.079   1.228   0.000  0.00  0.00    +0.000 A 
ATOM     15  C   UNL     1       1.079   2.053   0.000  0.00  0.00    +0.000 A 
ENDBRANCH   9  14
ENDBRANCH   1   9
BRANCH   5  16
ATOM     16  C   UNL     1      -1.065  -1.659   0.000  0.00  0.00    +0.000 C 
BRANCH  16  17
ATOM     17  C   UNL     1      -1.779  -1.247   0.000  0.00  0.00    +0.000 A 
ATOM     18  C   UNL     1      -2.494  -1.659   0.000  0.00  0.00    +0.000 A 
ATOM     19  C   UNL     1      -3.208  -1.247   0.000  0.00  0.00    +0.000 A 
ATOM     20  C   UNL     1      -3.208  -0.422   0.000  0.00  0.00    +0.000 A 
ATOM     21  N   UNL     1      -2.494  -0.009   0.000  0.00  0.00    +0.000 NA
ATOM     22  N   UNL     1      -1.779  -0.422   0.000  0.00  0.00    +0.000 NA
ATOM     23  O   UNL     1      -3.923  -0.009   0.000  0.00  0.00    +0.000 OA
ENDBRANCH  16  17
ENDBRANCH   5  16
TORSDOF 4
