REMARK  Name = PF2
REMARK  2 active torsions:
REMARK  status: ('A' for Active; 'I' for Inactive)
REMARK    1  A    between atoms: C_8  and  C_10
REMARK    2  A    between atoms: C_14  and  N_15
REMARK                            x       y       z     vdW  Elec       q    Type
REMARK                         _______ _______ _______ _____ _____    ______ ____
ROOT
ATOM      1  C   UNL     1       1.430   0.512   0.000  0.00  0.00    +0.000 C 
ATOM      2  N   UNL     1       1.017   1.226   0.000  0.00  0.00    +0.000 NA
ATOM      3  C   UNL     1       0.210   1.054   0.000  0.00  0.00    +0.000 C 
ATOM      4  C   UNL     1       0.878  -0.102   0.000  0.00  0.00    +0.000 C 
ATOM      5  C   UNL     1       0.124   0.234   0.000  0.00  0.00    +0.000 C 
ENDROOT
BRANCH   5   6
ATOM      6  N   UNL     1      -0.590  -0.178   0.000  0.00  0.00    +0.000 NA
ATOM      7  C   UNL     1      -1.305   0.234   0.000  0.00  0.00    +0.000 C 
ATOM      8  C   UNL     1      -2.019  -0.178   0.000  0.00  0.00    +0.000 C 
ATOM      9  N   UNL     1      -2.019  -1.004   0.000  0.00  0.00    +0.000 N 
ATOM     10  C   UNL     1      -1.305  -1.416   0.000  0.00  0.00    +0.000 C 
ATOM     11  C   UNL     1      -0.590  -1.004   0.000  0.00  0.00    +0.000 C 
ATOM     12  C   UNL     1      -2.734  -1.416   0.000  0.00  0.00    +0.000 A 
ATOM     13  N   UNL     1      -3.448  -1.004   0.000  0.00  0.00    +0.000 NA
ATOM     14  C   UNL     1      -4.163  -1.416   0.000  0.00  0.00    +0.000 A 
ATOM     15  C   UNL     1      -4.163  -2.241   0.000  0.00  0.00    +0.000 A 
ATOM     16  C   UNL     1      -3.448  -2.654   0.000  0.00  0.00    +0.000 A 
ATOM     17  N   UNL     1      -2.734  -2.241   0.000  0.00  0.00    +0.000 NA
ENDBRANCH   5   6
BRANCH   1  25
ATOM     18  F   UNL     1       4.228   2.592   0.000  0.00  0.00    +0.000 F 
ATOM     19  C   UNL     1       3.815   1.877   0.000  0.00  0.00    +0.000 C 
ATOM     20  F   UNL     1       4.569   1.542   0.000  0.00  0.00    +0.000 F 
ATOM     21  C   UNL     1       3.148   2.362   0.000  0.00  0.00    +0.000 C 
ATOM     22  C   UNL     1       2.480   1.877   0.000  0.00  0.00    +0.000 C 
ATOM     23  C   UNL     1       3.560   1.093   0.000  0.00  0.00    +0.000 C 
ATOM     24  N   UNL     1       2.735   1.093   0.000  0.00  0.00    +0.000 N 
ATOM     25  C   UNL     1       2.250   0.425   0.000  0.00  0.00    +0.000 C 
ATOM     26  O   UNL     1       2.586  -0.328   0.000  0.00  0.00    +0.000 OA
ENDBRANCH   1  25
TORSDOF 2
