REMARK  Name = PF3
REMARK  7 active torsions:
REMARK  status: ('A' for Active; 'I' for Inactive)
REMARK    1  A    between atoms: C_2  and  C_18
REMARK    2  A    between atoms: C_4  and  C_6
REMARK    3  A    between atoms: C_9  and  C_12
REMARK    4  A    between atoms: N_20  and  C_21
REMARK    5  A    between atoms: C_21  and  C_22
REMARK    6  A    between atoms: C_21  and  C_26
REMARK    7  A    between atoms: C_22  and  C_23
REMARK                            x       y       z     vdW  Elec       q    Type
REMARK                         _______ _______ _______ _____ _____    ______ ____
ROOT
ATOM      1  S   UNL     1      -0.950   1.292   0.000  0.00  0.00    +0.000 S 
ATOM      2  C   UNL     1      -0.197   0.956   0.000  0.00  0.00    +0.000 A 
ATOM      3  C   UNL     1      -0.283   0.136   0.000  0.00  0.00    +0.000 A 
ATOM      4  C   UNL     1      -1.090  -0.036   0.000  0.00  0.00    +0.000 A 
ATOM      5  C   UNL     1      -1.502   0.679   0.000  0.00  0.00    +0.000 A 
ENDROOT
BRANCH   4   6
ATOM      6  C   UNL     1      -1.425  -0.789   0.000  0.00  0.00    +0.000 A 
ATOM      7  C   UNL     1      -0.940  -1.457   0.000  0.00  0.00    +0.000 A 
ATOM      8  C   UNL     1      -1.276  -2.210   0.000  0.00  0.00    +0.000 A 
ATOM      9  C   UNL     1      -2.096  -2.297   0.000  0.00  0.00    +0.000 A 
ATOM     10  C   UNL     1      -2.581  -1.629   0.000  0.00  0.00    +0.000 A 
ATOM     11  C   UNL     1      -2.246  -0.875   0.000  0.00  0.00    +0.000 A 
BRANCH   9  12
ATOM     12  C   UNL     1      -2.432  -3.050   0.000  0.00  0.00    +0.000 A 
ATOM     13  C   UNL     1      -1.947  -3.718   0.000  0.00  0.00    +0.000 A 
ATOM     14  C   UNL     1      -2.283  -4.471   0.000  0.00  0.00    +0.000 A 
ATOM     15  N   UNL     1      -3.103  -4.558   0.000  0.00  0.00    +0.000 NA
ATOM     16  C   UNL     1      -3.588  -3.890   0.000  0.00  0.00    +0.000 A 
ATOM     17  C   UNL     1      -3.252  -3.136   0.000  0.00  0.00    +0.000 A 
ENDBRANCH   9  12
ENDBRANCH   4   6
BRANCH   2  18
ATOM     18  C   UNL     1       0.518   1.369   0.000  0.00  0.00    +0.000 C 
ATOM     19  O   UNL     1       0.518   2.194   0.000  0.00  0.00    +0.000 OA
ATOM     20  N   UNL     1       1.232   0.956   0.000  0.00  0.00    +0.000 NA
BRANCH  20  21
ATOM     21  C   UNL     1       1.947   1.369   0.000  0.00  0.00    +0.000 C 
BRANCH  21  22
ATOM     22  C   UNL     1       1.947   2.194   0.000  0.00  0.00    +0.000 A 
ATOM     23  C   UNL     1       1.232   2.606   0.000  0.00  0.00    +0.000 A 
ATOM     24  C   UNL     1       1.232   3.431   0.000  0.00  0.00    +0.000 A 
ATOM     25  C   UNL     1       1.947   3.844   0.000  0.00  0.00    +0.000 A 
ATOM     26  C   UNL     1       2.661   3.431   0.000  0.00  0.00    +0.000 A 
ATOM     27  C   UNL     1       2.661   2.606   0.000  0.00  0.00    +0.000 A 
ENDBRANCH  21  22
BRANCH  21  28
ATOM     28  C   UNL     1       2.661   0.956   0.000  0.00  0.00    +0.000 C 
BRANCH  28  29
ATOM     29  C   UNL     1       3.376   1.369   0.000  0.00  0.00    +0.000 C 
ATOM     30  O   UNL     1       4.090   0.956   0.000  0.00  0.00    +0.000 OA
ATOM     31  O   UNL     1       3.376   2.194   0.000  0.00  0.00    +0.000 OA
ENDBRANCH  28  29
ENDBRANCH  21  28
ENDBRANCH  20  21
ENDBRANCH   2  18
TORSDOF 7
