REMARK  Name = PF4
REMARK  5 active torsions:
REMARK  status: ('A' for Active; 'I' for Inactive)
REMARK    1  A    between atoms: C_2  and  C_16
REMARK    2  A    between atoms: C_4  and  O_9
REMARK    3  A    between atoms: C_13  and  C_14
REMARK    4  A    between atoms: C_21  and  C_22
REMARK    5  A    between atoms: C_24  and  O_25
REMARK                            x       y       z     vdW  Elec       q    Type
REMARK                         _______ _______ _______ _____ _____    ______ ____
ROOT
ATOM      1  C   UNL     1      -0.335   2.053   0.000  0.00  0.00    +0.000 A 
ATOM      2  C   UNL     1       0.078   0.783   0.000  0.00  0.00    +0.000 A 
ATOM      3  N   UNL     1       0.333   1.568   0.000  0.00  0.00    +0.000 NA
ATOM      4  N   UNL     1      -1.002   1.568   0.000  0.00  0.00    +0.000 NA
ATOM      5  C   UNL     1      -0.747   0.783   0.000  0.00  0.00    +0.000 A 
ENDROOT
BRANCH   5   9
ATOM      6  C   UNL     1      -0.896  -0.638   0.000  0.00  0.00    +0.000 A 
ATOM      7  C   UNL     1      -2.537  -0.465   0.000  0.00  0.00    +0.000 A 
ATOM      8  C   UNL     1      -2.053   0.202   0.000  0.00  0.00    +0.000 A 
ATOM      9  C   UNL     1      -1.232   0.116   0.000  0.00  0.00    +0.000 A 
ATOM     10  C   UNL     1      -1.381  -1.305   0.000  0.00  0.00    +0.000 A 
ATOM     11  C   UNL     1      -2.202  -1.219   0.000  0.00  0.00    +0.000 A 
BRANCH  11  12
ATOM     12  O   UNL     1      -2.687  -1.886   0.000  0.00  0.00    +0.000 OA
ATOM     13  C   UNL     1      -2.351  -2.640   0.000  0.00  0.00    +0.000 C 
ENDBRANCH  11  12
ENDBRANCH   5   9
BRANCH   2  19
ATOM     14  C   UNL     1       1.533  -1.219   0.000  0.00  0.00    +0.000 A 
ATOM     15  C   UNL     1       0.712  -1.305   0.000  0.00  0.00    +0.000 A 
ATOM     16  C   UNL     1       1.868  -0.465   0.000  0.00  0.00    +0.000 A 
ATOM     17  C   UNL     1       1.383   0.202   0.000  0.00  0.00    +0.000 A 
ATOM     18  C   UNL     1       0.227  -0.638   0.000  0.00  0.00    +0.000 A 
ATOM     19  C   UNL     1       0.563   0.116   0.000  0.00  0.00    +0.000 A 
BRANCH  14  21
ATOM     20  C   UNL     1       1.682  -2.640   0.000  0.00  0.00    +0.000 C 
ATOM     21  O   UNL     1       2.018  -1.886   0.000  0.00  0.00    +0.000 OA
ENDBRANCH  14  21
ENDBRANCH   2  19
BRANCH   1  23
ATOM     22  C   UNL     1       0.333   3.363   0.000  0.00  0.00    +0.000 A 
ATOM     23  C   UNL     1      -0.335   2.878   0.000  0.00  0.00    +0.000 A 
ATOM     24  S   UNL     1      -1.002   3.363   0.000  0.00  0.00    +0.000 S 
ATOM     25  C   UNL     1      -0.747   4.148   0.000  0.00  0.00    +0.000 A 
ATOM     26  C   UNL     1       0.078   4.148   0.000  0.00  0.00    +0.000 A 
ENDBRANCH   1  23
TORSDOF 5
