REMARK  Name = PF6
REMARK  6 active torsions:
REMARK  status: ('A' for Active; 'I' for Inactive)
REMARK    1  A    between atoms: C_4  and  C_5
REMARK    2  A    between atoms: C_4  and  O_17
REMARK    3  A    between atoms: O_17  and  C_18
REMARK    4  A    between atoms: C_21  and  C_22
REMARK    5  A    between atoms: C_23  and  C_26
REMARK    6  A    between atoms: C_26  and  C_27
REMARK                            x       y       z     vdW  Elec       q    Type
REMARK                         _______ _______ _______ _____ _____    ______ ____
ROOT
ATOM      1  C   UNL     1      -0.964   0.178   0.000  0.00  0.00    +0.000 A 
ATOM      2  C   UNL     1      -1.678  -1.060   0.000  0.00  0.00    +0.000 A 
ATOM      3  C   UNL     1      -0.249  -1.060   0.000  0.00  0.00    +0.000 A 
ATOM      4  C   UNL     1      -0.964  -1.472   0.000  0.00  0.00    +0.000 A 
ATOM      5  C   UNL     1      -0.249  -0.235   0.000  0.00  0.00    +0.000 A 
ATOM      6  C   UNL     1      -1.678  -0.235   0.000  0.00  0.00    +0.000 A 
ENDROOT
BRANCH   6   8
ATOM      7  C   UNL     1      -3.286   1.170   0.000  0.00  0.00    +0.000 A 
ATOM      8  C   UNL     1      -2.393   0.178   0.000  0.00  0.00    +0.000 A 
ATOM      9  C   UNL     1      -2.479   0.998   0.000  0.00  0.00    +0.000 A 
ATOM     10  N   UNL     1      -3.698   0.455   0.000  0.00  0.00    +0.000 NA
ATOM     11  N   UNL     1      -3.146  -0.158   0.000  0.00  0.00    +0.000 NA
BRANCH   9  12
ATOM     12  C   UNL     1      -1.866   1.550   0.000  0.00  0.00    +0.000 C 
BRANCH  12  15
ATOM     13  C   UNL     1      -2.822   2.612   0.000  0.00  0.00    +0.000 A 
ATOM     14  C   UNL     1      -2.994   3.419   0.000  0.00  0.00    +0.000 A 
ATOM     15  C   UNL     1      -2.037   2.357   0.000  0.00  0.00    +0.000 A 
ATOM     16  N   UNL     1      -2.380   3.971   0.000  0.00  0.00    +0.000 NA
ATOM     17  C   UNL     1      -1.596   3.716   0.000  0.00  0.00    +0.000 A 
ATOM     18  C   UNL     1      -1.424   2.909   0.000  0.00  0.00    +0.000 A 
ENDBRANCH  12  15
ENDBRANCH   9  12
ENDBRANCH   6   8
BRANCH   3  19
ATOM     19  O   UNL     1       0.465  -1.472   0.000  0.00  0.00    +0.000 OA
BRANCH  19  20
ATOM     20  C   UNL     1       1.180  -1.060   0.000  0.00  0.00    +0.000 C 
BRANCH  20  21
ATOM     21  C   UNL     1       1.894  -1.472   0.000  0.00  0.00    +0.000 A 
ATOM     22  C   UNL     1       3.323  -2.297   0.000  0.00  0.00    +0.000 A 
ATOM     23  C   UNL     1       4.752  -1.472   0.000  0.00  0.00    +0.000 A 
ATOM     24  C   UNL     1       4.752  -2.297   0.000  0.00  0.00    +0.000 A 
ATOM     25  C   UNL     1       4.037  -2.710   0.000  0.00  0.00    +0.000 A 
ATOM     26  C   UNL     1       2.609  -2.710   0.000  0.00  0.00    +0.000 A 
ATOM     27  C   UNL     1       1.894  -2.297   0.000  0.00  0.00    +0.000 A 
ATOM     28  C   UNL     1       3.323  -1.472   0.000  0.00  0.00    +0.000 A 
ATOM     29  C   UNL     1       4.037  -1.060   0.000  0.00  0.00    +0.000 A 
ATOM     30  N   UNL     1       2.609  -1.060   0.000  0.00  0.00    +0.000 NA
ENDBRANCH  20  21
ENDBRANCH  19  20
ENDBRANCH   3  19
TORSDOF 6
