REMARK  Name = PF7
REMARK  2 active torsions:
REMARK  status: ('A' for Active; 'I' for Inactive)
REMARK    1  A    between atoms: C_6  and  C_9
REMARK    2  A    between atoms: C_9  and  C_10
REMARK                            x       y       z     vdW  Elec       q    Type
REMARK                         _______ _______ _______ _____ _____    ______ ____
ROOT
ATOM      1  C   UNL     1      24.280  -7.729   0.000  0.00  0.00    +0.000 C 
ENDROOT
BRANCH   1   2
ATOM      2  C   UNL     1      24.994  -8.142   0.000  0.00  0.00    +0.000 A 
ATOM      3  C   UNL     1      25.709  -7.729   0.000  0.00  0.00    +0.000 A 
ATOM      4  C   UNL     1      26.423  -8.142   0.000  0.00  0.00    +0.000 A 
ATOM      5  C   UNL     1      27.138  -7.729   0.000  0.00  0.00    +0.000 A 
ATOM      6  C   UNL     1      27.852  -8.142   0.000  0.00  0.00    +0.000 A 
ATOM      7  C   UNL     1      27.852  -8.967   0.000  0.00  0.00    +0.000 A 
ATOM      8  C   UNL     1      27.138  -9.379   0.000  0.00  0.00    +0.000 A 
ATOM      9  C   UNL     1      26.423  -8.967   0.000  0.00  0.00    +0.000 A 
ATOM     10  N   UNL     1      25.709  -9.379   0.000  0.00  0.00    +0.000 NA
ATOM     11  C   UNL     1      24.994  -8.967   0.000  0.00  0.00    +0.000 A 
ENDBRANCH   1   2
BRANCH   1  17
ATOM     12  O   UNL     1      21.422 -10.204   0.000  0.00  0.00    +0.000 OA
ATOM     13  C   UNL     1      21.422  -9.379   0.000  0.00  0.00    +0.000 C 
ATOM     14  N   UNL     1      22.136  -8.967   0.000  0.00  0.00    +0.000 N 
ATOM     15  C   UNL     1      22.136  -8.142   0.000  0.00  0.00    +0.000 C 
ATOM     16  C   UNL     1      22.851  -7.729   0.000  0.00  0.00    +0.000 C 
ATOM     17  C   UNL     1      23.565  -8.142   0.000  0.00  0.00    +0.000 C 
ATOM     18  C   UNL     1      23.565  -8.967   0.000  0.00  0.00    +0.000 C 
ATOM     19  C   UNL     1      22.851  -9.379   0.000  0.00  0.00    +0.000 C 
ATOM     20  O   UNL     1      20.707  -8.967   0.000  0.00  0.00    +0.000 OA
ENDBRANCH   1  17
TORSDOF 2
