REMARK  Name = PF8
REMARK  5 active torsions:
REMARK  status: ('A' for Active; 'I' for Inactive)
REMARK    1  A    between atoms: C_4  and  C_7
REMARK    2  A    between atoms: C_6  and  O_17
REMARK    3  A    between atoms: C_7  and  O_17
REMARK    4  A    between atoms: C_19  and  C_20
REMARK    5  A    between atoms: C_21  and  C_24
REMARK                            x       y       z     vdW  Elec       q    Type
REMARK                         _______ _______ _______ _____ _____    ______ ____
ROOT
ATOM      1  C   UNL     1      -1.195  -0.562   0.000  0.00  0.00    +0.000 A 
ATOM      2  C   UNL     1      -1.195   1.088   0.000  0.00  0.00    +0.000 A 
ATOM      3  C   UNL     1      -1.909   0.676   0.000  0.00  0.00    +0.000 A 
ATOM      4  C   UNL     1      -0.480   0.676   0.000  0.00  0.00    +0.000 A 
ATOM      5  C   UNL     1      -0.480  -0.149   0.000  0.00  0.00    +0.000 A 
ATOM      6  C   UNL     1      -1.909  -0.149   0.000  0.00  0.00    +0.000 A 
ENDROOT
BRANCH   6   8
ATOM      7  C   UNL     1      -3.517  -1.554   0.000  0.00  0.00    +0.000 A 
ATOM      8  C   UNL     1      -2.624  -0.562   0.000  0.00  0.00    +0.000 A 
ATOM      9  C   UNL     1      -2.710  -1.382   0.000  0.00  0.00    +0.000 A 
ATOM     10  N   UNL     1      -3.930  -0.839   0.000  0.00  0.00    +0.000 NA
ATOM     11  N   UNL     1      -3.378  -0.226   0.000  0.00  0.00    +0.000 NA
BRANCH   9  12
ATOM     12  C   UNL     1      -2.097  -1.934   0.000  0.00  0.00    +0.000 A 
ATOM     13  C   UNL     1      -2.269  -2.741   0.000  0.00  0.00    +0.000 A 
ATOM     14  C   UNL     1      -1.655  -3.293   0.000  0.00  0.00    +0.000 A 
ATOM     15  N   UNL     1      -0.871  -3.038   0.000  0.00  0.00    +0.000 NA
ATOM     16  C   UNL     1      -0.699  -2.231   0.000  0.00  0.00    +0.000 A 
ATOM     17  C   UNL     1      -1.312  -1.679   0.000  0.00  0.00    +0.000 A 
ENDBRANCH   9  12
ENDBRANCH   6   8
BRANCH   4  18
ATOM     18  O   UNL     1       0.234   1.088   0.000  0.00  0.00    +0.000 OA
BRANCH  18  19
ATOM     19  C   UNL     1       0.948   0.676   0.000  0.00  0.00    +0.000 C 
BRANCH  19  20
ATOM     20  C   UNL     1       1.663   1.088   0.000  0.00  0.00    +0.000 A 
ATOM     21  C   UNL     1       3.806   0.676   0.000  0.00  0.00    +0.000 A 
ATOM     22  C   UNL     1       4.521   1.913   0.000  0.00  0.00    +0.000 A 
ATOM     23  C   UNL     1       4.521   1.088   0.000  0.00  0.00    +0.000 A 
ATOM     24  C   UNL     1       3.092   1.088   0.000  0.00  0.00    +0.000 A 
ATOM     25  N   UNL     1       2.377   0.676   0.000  0.00  0.00    +0.000 NA
ATOM     26  C   UNL     1       3.806   2.326   0.000  0.00  0.00    +0.000 A 
ATOM     27  C   UNL     1       3.092   1.913   0.000  0.00  0.00    +0.000 A 
ATOM     28  C   UNL     1       2.377   2.326   0.000  0.00  0.00    +0.000 A 
ATOM     29  C   UNL     1       1.663   1.913   0.000  0.00  0.00    +0.000 A 
ENDBRANCH  19  20
ENDBRANCH  18  19
ENDBRANCH   4  18
TORSDOF 5
