REMARK  Name = PFA
REMARK  4 active torsions:
REMARK  status: ('A' for Active; 'I' for Inactive)
REMARK    1  A    between atoms: N_6  and  C_9
REMARK    2  A    between atoms: C_16  and  O_17
REMARK    3  A    between atoms: O_17  and  C_18
REMARK    4  A    between atoms: C_21  and  C_22
REMARK                            x       y       z     vdW  Elec       q    Type
REMARK                         _______ _______ _______ _____ _____    ______ ____
ROOT
ATOM      1  C   UNL     1       2.076  -0.417   0.000  0.00  0.00    +0.000 A 
ATOM      2  C   UNL     1       1.362  -0.830   0.000  0.00  0.00    +0.000 A 
ATOM      3  C   UNL     1       0.647  -0.417   0.000  0.00  0.00    +0.000 A 
ATOM      4  C   UNL     1      -0.067  -0.830   0.000  0.00  0.00    +0.000 C 
ATOM      5  C   UNL     1       2.076   0.407   0.000  0.00  0.00    +0.000 A 
ATOM      6  C   UNL     1       1.362   0.820   0.000  0.00  0.00    +0.000 A 
ATOM      7  C   UNL     1       1.362   1.645   0.000  0.00  0.00    +0.000 C 
ATOM      8  C   UNL     1       0.647   0.407   0.000  0.00  0.00    +0.000 A 
ENDROOT
BRANCH   1  14
ATOM      9  O   UNL     1       3.505   0.407   0.000  0.00  0.00    +0.000 OA
ATOM     10  C   UNL     1       3.505  -0.417   0.000  0.00  0.00    +0.000 A 
ATOM     11  N   UNL     1       4.220  -0.830   0.000  0.00  0.00    +0.000 NA
ATOM     12  C   UNL     1       4.220  -1.655   0.000  0.00  0.00    +0.000 A 
ATOM     13  O   UNL     1       4.934  -2.067   0.000  0.00  0.00    +0.000 OA
ATOM     14  N   UNL     1       2.791  -0.830   0.000  0.00  0.00    +0.000 N 
ATOM     15  N   UNL     1       2.791  -1.655   0.000  0.00  0.00    +0.000 NA
ATOM     16  C   UNL     1       3.505  -2.067   0.000  0.00  0.00    +0.000 A 
ENDBRANCH   1  14
BRANCH   8  17
ATOM     17  O   UNL     1      -0.067   0.820   0.000  0.00  0.00    +0.000 OA
BRANCH  17  18
ATOM     18  C   UNL     1      -0.781   0.407   0.000  0.00  0.00    +0.000 A 
ATOM     19  C   UNL     1      -0.781  -0.417   0.000  0.00  0.00    +0.000 A 
ATOM     20  C   UNL     1      -1.496   0.820   0.000  0.00  0.00    +0.000 A 
ATOM     21  C   UNL     1      -2.210   0.407   0.000  0.00  0.00    +0.000 A 
ATOM     22  C   UNL     1      -2.210  -0.417   0.000  0.00  0.00    +0.000 A 
ATOM     23  C   UNL     1      -1.496  -0.830   0.000  0.00  0.00    +0.000 A 
ATOM     24  O   UNL     1      -2.925  -0.830   0.000  0.00  0.00    +0.000 OA
BRANCH  21  25
ATOM     25  C   UNL     1      -2.925   0.820   0.000  0.00  0.00    +0.000 C 
ATOM     26  C   UNL     1      -3.639   0.407   0.000  0.00  0.00    +0.000 C 
ATOM     27  C   UNL     1      -2.925   1.645   0.000  0.00  0.00    +0.000 C 
ENDBRANCH  21  25
ENDBRANCH  17  18
ENDBRANCH   8  17
TORSDOF 4
