REMARK  Name = PFD
REMARK  8 active torsions:
REMARK  status: ('A' for Active; 'I' for Inactive)
REMARK    1  A    between atoms: C_7  and  O_8
REMARK    2  A    between atoms: O_8  and  C_9
REMARK    3  A    between atoms: C_14  and  O_15
REMARK    4  A    between atoms: O_15  and  C_16
REMARK    5  A    between atoms: C_16  and  C_17
REMARK    6  A    between atoms: C_17  and  C_18
REMARK    7  A    between atoms: C_18  and  O_19
REMARK    8  A    between atoms: O_19  and  C_20
REMARK                            x       y       z     vdW  Elec       q    Type
REMARK                         _______ _______ _______ _____ _____    ______ ____
ROOT
ATOM      1  O   UNL     1      -1.122  -0.660   0.000  0.00  0.00    +0.000 OA
ENDROOT
BRANCH   1   2
ATOM      2  C   UNL     1      -0.840  -1.436   0.000  0.00  0.00    +0.000 C 
ATOM      3  C   UNL     1      -0.310  -2.068   0.000  0.00  0.00    +0.000 C 
ATOM      4  O   UNL     1       0.502  -1.924   0.000  0.00  0.00    +0.000 OA
ATOM      5  N   UNL     1      -0.592  -2.843   0.000  0.00  0.00    +0.000 NA
ATOM      6  C   UNL     1      -1.405  -2.986   0.000  0.00  0.00    +0.000 C 
ATOM      7  O   UNL     1      -1.687  -3.761   0.000  0.00  0.00    +0.000 OA
ATOM      8  N   UNL     1      -1.935  -2.354   0.000  0.00  0.00    +0.000 NA
ATOM      9  C   UNL     1      -1.653  -1.579   0.000  0.00  0.00    +0.000 C 
ATOM     10  O   UNL     1      -2.183  -0.947   0.000  0.00  0.00    +0.000 OA
BRANCH   2  11
ATOM     11  C   UNL     1      -0.126  -1.023   0.000  0.00  0.00    +0.000 C 
BRANCH  11  12
ATOM     12  C   UNL     1       0.589  -1.436   0.000  0.00  0.00    +0.000 C 
BRANCH  12  13
ATOM     13  O   UNL     1       1.303  -1.023   0.000  0.00  0.00    +0.000 OA
BRANCH  13  14
ATOM     14  C   UNL     1       2.018  -1.436   0.000  0.00  0.00    +0.000 C 
ATOM     15  C   UNL     1       2.018  -2.261   0.000  0.00  0.00    +0.000 C 
ENDBRANCH  13  14
ENDBRANCH  12  13
ENDBRANCH  11  12
ENDBRANCH   2  11
ENDBRANCH   1   2
BRANCH   1  21
ATOM     16  C   UNL     1       0.469   1.236   0.000  0.00  0.00    +0.000 A 
ATOM     17  C   UNL     1       0.751   0.460   0.000  0.00  0.00    +0.000 A 
ATOM     18  C   UNL     1       0.220  -0.172   0.000  0.00  0.00    +0.000 A 
ATOM     19  C   UNL     1      -0.344   1.379   0.000  0.00  0.00    +0.000 A 
ATOM     20  C   UNL     1      -0.874   0.747   0.000  0.00  0.00    +0.000 A 
ATOM     21  C   UNL     1      -0.592  -0.029   0.000  0.00  0.00    +0.000 A 
BRANCH  16  22
ATOM     22  O   UNL     1       0.999   1.867   0.000  0.00  0.00    +0.000 OA
BRANCH  22  29
ATOM     23  F   UNL     1      -0.130   4.968   0.000  0.00  0.00    +0.000 F 
ATOM     24  C   UNL     1       0.152   4.193   0.000  0.00  0.00    +0.000 A 
ATOM     25  C   UNL     1       0.965   4.050   0.000  0.00  0.00    +0.000 A 
ATOM     26  C   UNL     1       1.247   3.275   0.000  0.00  0.00    +0.000 A 
ATOM     27  C   UNL     1      -0.378   3.561   0.000  0.00  0.00    +0.000 A 
ATOM     28  C   UNL     1      -0.096   2.786   0.000  0.00  0.00    +0.000 A 
ATOM     29  C   UNL     1       0.717   2.643   0.000  0.00  0.00    +0.000 A 
ENDBRANCH  22  29
ENDBRANCH  16  22
ENDBRANCH   1  21
TORSDOF 8
