REMARK  Name = PFE
REMARK  7 active torsions:
REMARK  status: ('A' for Active; 'I' for Inactive)
REMARK    1  A    between atoms: C_2  and  C_3
REMARK    2  A    between atoms: C_7  and  C_8
REMARK    3  A    between atoms: C_13  and  N_14
REMARK    4  A    between atoms: C_20  and  O_21
REMARK    5  A    between atoms: O_21  and  C_22
REMARK    6  A    between atoms: C_27  and  O_28
REMARK    7  A    between atoms: O_28  and  C_29
REMARK                            x       y       z     vdW  Elec       q    Type
REMARK                         _______ _______ _______ _____ _____    ______ ____
ROOT
ATOM      1  N   UNL     1      -0.540  -0.025   0.000  0.00  0.00    +0.000 NA
ATOM      2  C   UNL     1      -0.540  -0.850   0.000  0.00  0.00    +0.000 A 
ATOM      3  N   UNL     1      -1.254  -1.262   0.000  0.00  0.00    +0.000 NA
ATOM      4  C   UNL     1      -1.254  -2.087   0.000  0.00  0.00    +0.000 A 
ATOM      5  C   UNL     1       0.175  -1.262   0.000  0.00  0.00    +0.000 A 
ATOM      6  C   UNL     1       0.889  -0.850   0.000  0.00  0.00    +0.000 A 
ATOM      7  C   UNL     1       1.604  -1.262   0.000  0.00  0.00    +0.000 A 
ATOM      8  C   UNL     1       0.175  -2.087   0.000  0.00  0.00    +0.000 A 
ATOM      9  N   UNL     1      -0.540  -2.500   0.000  0.00  0.00    +0.000 NA
ATOM     10  C   UNL     1       0.889  -2.500   0.000  0.00  0.00    +0.000 A 
ATOM     11  C   UNL     1       1.604  -2.087   0.000  0.00  0.00    +0.000 A 
ENDROOT
BRANCH   1  17
ATOM     12  C   UNL     1      -1.969   1.625   0.000  0.00  0.00    +0.000 A 
ATOM     13  C   UNL     1      -1.254   1.213   0.000  0.00  0.00    +0.000 A 
ATOM     14  C   UNL     1      -2.683   1.213   0.000  0.00  0.00    +0.000 A 
ATOM     15  C   UNL     1      -2.683   0.388   0.000  0.00  0.00    +0.000 A 
ATOM     16  C   UNL     1      -1.969  -0.025   0.000  0.00  0.00    +0.000 A 
ATOM     17  C   UNL     1      -1.254   0.388   0.000  0.00  0.00    +0.000 A 
BRANCH  12  22
ATOM     18  C   UNL     1      -2.381   3.720   0.000  0.00  0.00    +0.000 A 
ATOM     19  S   UNL     1      -1.556   3.720   0.000  0.00  0.00    +0.000 S 
ATOM     20  C   UNL     1      -1.301   2.935   0.000  0.00  0.00    +0.000 A 
ATOM     21  N   UNL     1      -2.636   2.935   0.000  0.00  0.00    +0.000 NA
ATOM     22  C   UNL     1      -1.969   2.450   0.000  0.00  0.00    +0.000 A 
BRANCH  18  24
ATOM     23  O   UNL     1      -2.530   5.141   0.000  0.00  0.00    +0.000 OA
ATOM     24  C   UNL     1      -2.866   4.387   0.000  0.00  0.00    +0.000 C 
ENDBRANCH  18  24
ENDBRANCH  12  22
ENDBRANCH   1  17
BRANCH  11  25
ATOM     25  O   UNL     1       2.318  -2.500   0.000  0.00  0.00    +0.000 OA
BRANCH  25  26
ATOM     26  C   UNL     1       2.318  -3.325   0.000  0.00  0.00    +0.000 C 
ATOM     27  C   UNL     1       3.033  -3.737   0.000  0.00  0.00    +0.000 C 
ENDBRANCH  25  26
ENDBRANCH  11  25
BRANCH   7  28
ATOM     28  O   UNL     1       2.318  -0.850   0.000  0.00  0.00    +0.000 OA
BRANCH  28  29
ATOM     29  C   UNL     1       2.318  -0.025   0.000  0.00  0.00    +0.000 C 
ATOM     30  C   UNL     1       3.033   0.388   0.000  0.00  0.00    +0.000 C 
ENDBRANCH  28  29
ENDBRANCH   7  28
TORSDOF 7
