REMARK  Name = PFI
REMARK  6 active torsions:
REMARK  status: ('A' for Active; 'I' for Inactive)
REMARK    1  A    between atoms: C_3  and  O_4
REMARK    2  A    between atoms: O_4  and  C_5
REMARK    3  A    between atoms: C_10  and  C_12
REMARK    4  A    between atoms: C_12  and  C_13
REMARK    5  A    between atoms: C_13  and  C_14
REMARK    6  A    between atoms: C_14  and  C_16
REMARK                            x       y       z     vdW  Elec       q    Type
REMARK                         _______ _______ _______ _____ _____    ______ ____
ROOT
ATOM      1  C   UNL     1      -0.589   0.745   0.000  0.00  0.00    +0.000 C 
ENDROOT
BRANCH   1   2
ATOM      2  C   UNL     1      -1.401   0.888   0.000  0.00  0.00    +0.000 C 
ATOM      3  C   UNL     1      -2.214   0.745   0.000  0.00  0.00    +0.000 C 
ATOM      4  O   UNL     1      -1.119   1.663   0.000  0.00  0.00    +0.000 OA
ATOM      5  C   UNL     1      -1.649   2.295   0.000  0.00  0.00    +0.000 C 
ATOM      6  O   UNL     1      -1.367   3.070   0.000  0.00  0.00    +0.000 OA
ATOM      7  C   UNL     1      -2.462   2.152   0.000  0.00  0.00    +0.000 C 
ATOM      8  C   UNL     1      -2.744   1.377   0.000  0.00  0.00    +0.000 C 
ATOM      9  O   UNL     1      -3.556   1.233   0.000  0.00  0.00    +0.000 OA
BRANCH   2  10
ATOM     10  C   UNL     1      -1.401   0.063   0.000  0.00  0.00    +0.000 C 
ATOM     11  C   UNL     1      -0.734  -0.422   0.000  0.00  0.00    +0.000 C 
ATOM     12  C   UNL     1      -2.069  -0.422   0.000  0.00  0.00    +0.000 C 
ATOM     13  C   UNL     1      -1.814  -1.207   0.000  0.00  0.00    +0.000 C 
ATOM     14  C   UNL     1      -0.989  -1.207   0.000  0.00  0.00    +0.000 C 
ENDBRANCH   2  10
ENDBRANCH   1   2
BRANCH   1  15
ATOM     15  C   UNL     1      -0.306  -0.031   0.000  0.00  0.00    +0.000 C 
BRANCH  15  21
ATOM     16  F   UNL     1       2.379   0.947   0.000  0.00  0.00    +0.000 F 
ATOM     17  C   UNL     1       1.849   0.315   0.000  0.00  0.00    +0.000 A 
ATOM     18  C   UNL     1       2.131  -0.460   0.000  0.00  0.00    +0.000 A 
ATOM     19  C   UNL     1       1.601  -1.092   0.000  0.00  0.00    +0.000 A 
ATOM     20  C   UNL     1       0.788  -0.949   0.000  0.00  0.00    +0.000 A 
ATOM     21  C   UNL     1       0.506  -0.174   0.000  0.00  0.00    +0.000 A 
ATOM     22  C   UNL     1       1.036   0.458   0.000  0.00  0.00    +0.000 A 
BRANCH  18  23
ATOM     23  O   UNL     1       2.943  -0.604   0.000  0.00  0.00    +0.000 OA
BRANCH  23  24
ATOM     24  C   UNL     1       3.474   0.028   0.000  0.00  0.00    +0.000 C 
ATOM     25  C   UNL     1       4.286  -0.115   0.000  0.00  0.00    +0.000 C 
ATOM     26  C   UNL     1       3.192   0.804   0.000  0.00  0.00    +0.000 C 
ENDBRANCH  23  24
ENDBRANCH  18  23
ENDBRANCH  15  21
ENDBRANCH   1  15
TORSDOF 6
