REMARK  Name = PFP
REMARK  7 active torsions:
REMARK  status: ('A' for Active; 'I' for Inactive)
REMARK    1  A    between atoms: O_2  and  C_3
REMARK    2  A    between atoms: C_8  and  C_9
REMARK    3  A    between atoms: C_11  and  N_12
REMARK    4  A    between atoms: N_12  and  C_13
REMARK    5  A    between atoms: C_13  and  C_14
REMARK    6  A    between atoms: C_21  and  C_22
REMARK    7  A    between atoms: C_25  and  O_26
REMARK                            x       y       z     vdW  Elec       q    Type
REMARK                         _______ _______ _______ _____ _____    ______ ____
ROOT
ATOM      1  C   UNL     1       0.702  -0.629   0.000  0.00  0.00    +0.000 A 
ATOM      2  C   UNL     1       1.487  -0.884   0.000  0.00  0.00    +0.000 A 
ATOM      3  C   UNL     1       2.201  -0.472   0.000  0.00  0.00    +0.000 A 
ATOM      4  N   UNL     1       2.916  -0.884   0.000  0.00  0.00    +0.000 NA
ATOM      5  C   UNL     1       2.916  -1.709   0.000  0.00  0.00    +0.000 A 
ATOM      6  N   UNL     1       2.201  -2.122   0.000  0.00  0.00    +0.000 NA
ATOM      7  C   UNL     1       1.487  -1.709   0.000  0.00  0.00    +0.000 A 
ATOM      8  O   UNL     1       0.702  -1.964   0.000  0.00  0.00    +0.000 OA
ATOM      9  C   UNL     1       0.217  -1.297   0.000  0.00  0.00    +0.000 A 
ENDROOT
BRANCH   9  10
ATOM     10  C   UNL     1      -0.608  -1.297   0.000  0.00  0.00    +0.000 A 
ATOM     11  C   UNL     1      -1.020  -2.011   0.000  0.00  0.00    +0.000 A 
ATOM     12  C   UNL     1      -1.845  -2.011   0.000  0.00  0.00    +0.000 A 
ATOM     13  C   UNL     1      -2.258  -1.297   0.000  0.00  0.00    +0.000 A 
ATOM     14  C   UNL     1      -1.845  -0.582   0.000  0.00  0.00    +0.000 A 
ATOM     15  C   UNL     1      -1.020  -0.582   0.000  0.00  0.00    +0.000 A 
BRANCH  13  16
ATOM     16  O   UNL     1      -3.083  -1.297   0.000  0.00  0.00    +0.000 OA
ATOM     17  C   UNL     1      -3.495  -2.011   0.000  0.00  0.00    +0.000 C 
ENDBRANCH  13  16
ENDBRANCH   9  10
BRANCH   1  23
ATOM     18  C   UNL     1      -0.063   1.724   0.000  0.00  0.00    +0.000 A 
ATOM     19  C   UNL     1       0.744   1.553   0.000  0.00  0.00    +0.000 A 
ATOM     20  C   UNL     1       0.999   0.768   0.000  0.00  0.00    +0.000 A 
ATOM     21  C   UNL     1      -0.615   1.111   0.000  0.00  0.00    +0.000 A 
ATOM     22  C   UNL     1      -0.360   0.327   0.000  0.00  0.00    +0.000 A 
ATOM     23  C   UNL     1       0.447   0.155   0.000  0.00  0.00    +0.000 A 
BRANCH  18  25
ATOM     24  C   UNL     1      -1.125   2.681   0.000  0.00  0.00    +0.000 C 
ATOM     25  O   UNL     1      -0.318   2.509   0.000  0.00  0.00    +0.000 OA
ENDBRANCH  18  25
ENDBRANCH   1  23
BRANCH   3  26
ATOM     26  N   UNL     1       2.201   0.353   0.000  0.00  0.00    +0.000 NA
BRANCH  26  27
ATOM     27  C   UNL     1       2.916   0.766   0.000  0.00  0.00    +0.000 C 
BRANCH  27  28
ATOM     28  C   UNL     1       2.916   1.591   0.000  0.00  0.00    +0.000 C 
ATOM     29  O   UNL     1       3.630   2.003   0.000  0.00  0.00    +0.000 OA
ENDBRANCH  27  28
ENDBRANCH  26  27
ENDBRANCH   3  26
TORSDOF 7
