REMARK  Name = PFQ
REMARK  4 active torsions:
REMARK  status: ('A' for Active; 'I' for Inactive)
REMARK    1  A    between atoms: C_2  and  C_3
REMARK    2  A    between atoms: N_17  and  C_24
REMARK    3  A    between atoms: C_21  and  C_22
REMARK    4  A    between atoms: C_23  and  C_24
REMARK                            x       y       z     vdW  Elec       q    Type
REMARK                         _______ _______ _______ _____ _____    ______ ____
ROOT
ATOM      1  C   UNL     1       2.708  -1.630   0.000  0.00  0.00    +0.000 A 
ATOM      2  C   UNL     1       0.009  -1.217   0.000  0.00  0.00    +0.000 A 
ATOM      3  N   UNL     1       1.993  -2.042   0.000  0.00  0.00    +0.000 NA
ATOM      4  C   UNL     1       1.278  -1.630   0.000  0.00  0.00    +0.000 A 
ATOM      5  O   UNL     1       0.494  -1.885   0.000  0.00  0.00    +0.000 OA
ATOM      6  C   UNL     1       1.278  -0.805   0.000  0.00  0.00    +0.000 A 
ATOM      7  N   UNL     1       1.993   0.433   0.000  0.00  0.00    +0.000 NA
ATOM      8  C   UNL     1       1.993  -0.392   0.000  0.00  0.00    +0.000 A 
ATOM      9  N   UNL     1       2.708  -0.805   0.000  0.00  0.00    +0.000 NA
ATOM     10  C   UNL     1       0.494  -0.550   0.000  0.00  0.00    +0.000 A 
ENDROOT
BRANCH   2  11
ATOM     11  C   UNL     1      -0.816  -1.217   0.000  0.00  0.00    +0.000 A 
ATOM     12  C   UNL     1      -1.228  -1.932   0.000  0.00  0.00    +0.000 A 
ATOM     13  C   UNL     1      -2.054  -1.932   0.000  0.00  0.00    +0.000 A 
ATOM     14  C   UNL     1      -2.466  -1.217   0.000  0.00  0.00    +0.000 A 
ATOM     15  C   UNL     1      -2.054  -0.503   0.000  0.00  0.00    +0.000 A 
ATOM     16  C   UNL     1      -1.228  -0.503   0.000  0.00  0.00    +0.000 A 
ENDBRANCH   2  11
BRANCH  10  22
ATOM     17  C   UNL     1      -0.568   0.406   0.000  0.00  0.00    +0.000 A 
ATOM     18  C   UNL     1      -0.823   1.191   0.000  0.00  0.00    +0.000 A 
ATOM     19  C   UNL     1      -0.271   1.804   0.000  0.00  0.00    +0.000 A 
ATOM     20  C   UNL     1       0.536   1.633   0.000  0.00  0.00    +0.000 A 
ATOM     21  C   UNL     1       0.791   0.848   0.000  0.00  0.00    +0.000 A 
ATOM     22  C   UNL     1       0.239   0.235   0.000  0.00  0.00    +0.000 A 
ENDBRANCH  10  22
BRANCH   7  23
ATOM     23  C   UNL     1       1.278   0.845   0.000  0.00  0.00    +0.000 C 
BRANCH  23  24
ATOM     24  C   UNL     1       1.278   1.670   0.000  0.00  0.00    +0.000 C 
ATOM     25  O   UNL     1       0.564   2.083   0.000  0.00  0.00    +0.000 OA
ENDBRANCH  23  24
ENDBRANCH   7  23
TORSDOF 4
