REMARK  Name = PFZ
REMARK  8 active torsions:
REMARK  status: ('A' for Active; 'I' for Inactive)
REMARK    1  A    between atoms: C_1  and  C_3
REMARK    2  A    between atoms: C_1  and  C_4
REMARK    3  A    between atoms: C_1  and  C_5
REMARK    4  A    between atoms: C_4  and  C_6
REMARK    5  A    between atoms: C_5  and  N_11
REMARK    6  A    between atoms: C_6  and  C_7
REMARK    7  A    between atoms: C_7  and  C_8
REMARK    8  A    between atoms: C_8  and  C_9
REMARK                            x       y       z     vdW  Elec       q    Type
REMARK                         _______ _______ _______ _____ _____    ______ ____
ROOT
ATOM      1  C   UNL     1       0.748   0.249   0.000  0.00  0.00    +0.000 C 
ATOM      2  O   UNL     1       1.559   0.100   0.000  0.00  0.00    +0.000 OA
ENDROOT
BRANCH   1   3
ATOM      3  C   UNL     1       0.896   1.060   0.000  0.00  0.00    +0.000 A 
ATOM      4  C   UNL     1       0.268   1.595   0.000  0.00  0.00    +0.000 A 
ATOM      5  C   UNL     1       0.416   2.406   0.000  0.00  0.00    +0.000 A 
ATOM      6  C   UNL     1       1.193   2.683   0.000  0.00  0.00    +0.000 A 
ATOM      7  C   UNL     1       1.822   2.149   0.000  0.00  0.00    +0.000 A 
ATOM      8  C   UNL     1       1.673   1.338   0.000  0.00  0.00    +0.000 A 
ATOM      9 CL   UNL     1       2.302   0.803   0.000  0.00  0.00    +0.000 Cl
ATOM     10 CL   UNL     1       1.342   3.495   0.000  0.00  0.00    +0.000 Cl
ENDBRANCH   1   3
BRANCH   1  11
ATOM     11  C   UNL     1       0.599  -0.563   0.000  0.00  0.00    +0.000 C 
BRANCH  11  12
ATOM     12  N   UNL     1       1.228  -1.097   0.000  0.00  0.00    +0.000 N 
ATOM     13  C   UNL     1       1.165  -1.920   0.000  0.00  0.00    +0.000 A 
ATOM     14  C   UNL     1       1.928  -2.234   0.000  0.00  0.00    +0.000 A 
ATOM     15  N   UNL     1       2.462  -1.605   0.000  0.00  0.00    +0.000 NA
ATOM     16  C   UNL     1       2.030  -0.903   0.000  0.00  0.00    +0.000 A 
ENDBRANCH  11  12
ENDBRANCH   1  11
BRANCH   1  17
ATOM     17  C   UNL     1      -0.064   0.397   0.000  0.00  0.00    +0.000 C 
BRANCH  17  18
ATOM     18  C   UNL     1      -0.598  -0.231   0.000  0.00  0.00    +0.000 C 
BRANCH  18  19
ATOM     19  C   UNL     1      -1.409  -0.083   0.000  0.00  0.00    +0.000 C 
BRANCH  19  20
ATOM     20  C   UNL     1      -1.944  -0.711   0.000  0.00  0.00    +0.000 C 
BRANCH  20  21
ATOM     21  C   UNL     1      -2.755  -0.563   0.000  0.00  0.00    +0.000 C 
ATOM     22  C   UNL     1      -3.033   0.214   0.000  0.00  0.00    +0.000 C 
ENDBRANCH  20  21
ENDBRANCH  19  20
ENDBRANCH  18  19
ENDBRANCH  17  18
ENDBRANCH   1  17
TORSDOF 8
