REMARK  Name = PG2
REMARK  12 active torsions:
REMARK  status: ('A' for Active; 'I' for Inactive)
REMARK    1  A    between atoms: C_1  and  C_2
REMARK    2  A    between atoms: C_2  and  C_3
REMARK    3  A    between atoms: C_3  and  C_4
REMARK    4  A    between atoms: C_4  and  C_5
REMARK    5  A    between atoms: C_6  and  C_7
REMARK    6  A    between atoms: C_7  and  C_8
REMARK    7  A    between atoms: C_12  and  C_13
REMARK    8  A    between atoms: C_14  and  C_15
REMARK    9  A    between atoms: C_15  and  C_16
REMARK   10  A    between atoms: C_16  and  C_17
REMARK   11  A    between atoms: C_17  and  C_18
REMARK   12  A    between atoms: C_18  and  C_19
REMARK                            x       y       z     vdW  Elec       q    Type
REMARK                         _______ _______ _______ _____ _____    ______ ____
ROOT
ATOM      1  C   UNL     1       0.518   1.514   0.000  0.00  0.00    +0.000 C 
ATOM      2  C   UNL     1       0.773   2.299   0.000  0.00  0.00    +0.000 C 
ATOM      3  C   UNL     1       1.598   2.299   0.000  0.00  0.00    +0.000 C 
ATOM      4  C   UNL     1       1.853   1.514   0.000  0.00  0.00    +0.000 C 
ATOM      5  C   UNL     1       1.185   1.029   0.000  0.00  0.00    +0.000 C 
ATOM      6  O   UNL     1       0.288   2.966   0.000  0.00  0.00    +0.000 OA
ATOM      7  O   UNL     1       2.637   1.259   0.000  0.00  0.00    +0.000 OA
ENDROOT
BRANCH   5   8
ATOM      8  C   UNL     1       1.185   0.204   0.000  0.00  0.00    +0.000 C 
ATOM      9  C   UNL     1       0.471  -0.208   0.000  0.00  0.00    +0.000 C 
BRANCH   9  10
ATOM     10  C   UNL     1       0.471  -1.033   0.000  0.00  0.00    +0.000 C 
ATOM     11  O   UNL     1      -0.244  -1.446   0.000  0.00  0.00    +0.000 OA
BRANCH  10  12
ATOM     12  C   UNL     1       1.185  -1.446   0.000  0.00  0.00    +0.000 C 
BRANCH  12  13
ATOM     13  C   UNL     1       1.900  -1.033   0.000  0.00  0.00    +0.000 C 
BRANCH  13  14
ATOM     14  C   UNL     1       2.614  -1.446   0.000  0.00  0.00    +0.000 C 
BRANCH  14  15
ATOM     15  C   UNL     1       3.329  -1.033   0.000  0.00  0.00    +0.000 C 
ATOM     16  C   UNL     1       4.043  -1.446   0.000  0.00  0.00    +0.000 C 
ENDBRANCH  14  15
ENDBRANCH  13  14
ENDBRANCH  12  13
ENDBRANCH  10  12
ENDBRANCH   9  10
ENDBRANCH   5   8
BRANCH   1  17
ATOM     17  C   UNL     1      -0.267   1.259   0.000  0.00  0.00    +0.000 C 
BRANCH  17  19
ATOM     18  C   UNL     1      -1.223   0.197   0.000  0.00  0.00    +0.000 C 
ATOM     19  C   UNL     1      -0.439   0.452   0.000  0.00  0.00    +0.000 C 
BRANCH  18  20
ATOM     20  C   UNL     1      -1.836   0.749   0.000  0.00  0.00    +0.000 C 
BRANCH  20  21
ATOM     21  C   UNL     1      -2.621   0.494   0.000  0.00  0.00    +0.000 C 
BRANCH  21  22
ATOM     22  C   UNL     1      -2.792  -0.312   0.000  0.00  0.00    +0.000 C 
BRANCH  22  23
ATOM     23  C   UNL     1      -3.577  -0.567   0.000  0.00  0.00    +0.000 C 
ATOM     24  O   UNL     1      -3.748  -1.374   0.000  0.00  0.00    +0.000 OA
ATOM     25  O   UNL     1      -4.190  -0.015   0.000  0.00  0.00    +0.000 OA
ENDBRANCH  22  23
ENDBRANCH  21  22
ENDBRANCH  20  21
ENDBRANCH  18  20
ENDBRANCH  17  19
ENDBRANCH   1  17
TORSDOF 12
