REMARK  Name = PGG
REMARK  9 active torsions:
REMARK  status: ('A' for Active; 'I' for Inactive)
REMARK    1  A    between atoms: C_1  and  O_8
REMARK    2  A    between atoms: C_4  and  N_21
REMARK    3  A    between atoms: P_7  and  O_8
REMARK    4  A    between atoms: P_7  and  C_11
REMARK    5  A    between atoms: C_11  and  C_12
REMARK    6  A    between atoms: C_12  and  C_13
REMARK    7  A    between atoms: C_13  and  C_14
REMARK    8  A    between atoms: N_15  and  C_17
REMARK    9  A    between atoms: C_17  and  C_18
REMARK                            x       y       z     vdW  Elec       q    Type
REMARK                         _______ _______ _______ _____ _____    ______ ____
ROOT
ATOM      1  P   UNL     1      -0.665  -0.216   0.000  0.00  0.00    +0.000 P 
ATOM      2  O   UNL     1      -0.971   0.550   0.000  0.00  0.00    +0.000 OA
ATOM      3  O   UNL     1      -0.359  -0.983   0.000  0.00  0.00    +0.000 OA
ENDROOT
BRANCH   1   4
ATOM      4  O   UNL     1      -1.431  -0.523   0.000  0.00  0.00    +0.000 OA
BRANCH   4   5
ATOM      5  C   UNL     1      -2.079  -0.012   0.000  0.00  0.00    +0.000 A 
ATOM      6  C   UNL     1      -2.846  -0.319   0.000  0.00  0.00    +0.000 A 
ATOM      7  C   UNL     1      -3.494   0.192   0.000  0.00  0.00    +0.000 A 
ATOM      8  C   UNL     1      -3.376   1.008   0.000  0.00  0.00    +0.000 A 
ATOM      9  C   UNL     1      -2.610   1.315   0.000  0.00  0.00    +0.000 A 
ATOM     10  C   UNL     1      -1.962   0.804   0.000  0.00  0.00    +0.000 A 
BRANCH   8  11
ATOM     11  N   UNL     1      -4.024   1.519   0.000  0.00  0.00    +0.000 N 
ATOM     12  O   UNL     1      -4.790   1.212   0.000  0.00  0.00    +0.000 OA
ATOM     13  O   UNL     1      -3.906   2.335   0.000  0.00  0.00    +0.000 OA
ENDBRANCH   8  11
ENDBRANCH   4   5
ENDBRANCH   1   4
BRANCH   1  14
ATOM     14  C   UNL     1       0.101   0.090   0.000  0.00  0.00    +0.000 C 
BRANCH  14  15
ATOM     15  C   UNL     1       0.749  -0.421   0.000  0.00  0.00    +0.000 C 
BRANCH  15  16
ATOM     16  C   UNL     1       1.515  -0.114   0.000  0.00  0.00    +0.000 C 
BRANCH  16  17
ATOM     17  C   UNL     1       2.163  -0.625   0.000  0.00  0.00    +0.000 C 
ATOM     18  N   UNL     1       2.929  -0.319   0.000  0.00  0.00    +0.000 NA
ATOM     19  O   UNL     1       2.046  -1.441   0.000  0.00  0.00    +0.000 OA
BRANCH  18  20
ATOM     20  C   UNL     1       3.578  -0.829   0.000  0.00  0.00    +0.000 C 
BRANCH  20  21
ATOM     21  C   UNL     1       4.344  -0.523   0.000  0.00  0.00    +0.000 C 
ATOM     22  O   UNL     1       4.992  -1.033   0.000  0.00  0.00    +0.000 OA
ATOM     23  O   UNL     1       4.462   0.294   0.000  0.00  0.00    +0.000 OA
ENDBRANCH  20  21
ENDBRANCH  18  20
ENDBRANCH  16  17
ENDBRANCH  15  16
ENDBRANCH  14  15
ENDBRANCH   1  14
TORSDOF 9
