REMARK  Name = PGJ
REMARK  7 active torsions:
REMARK  status: ('A' for Active; 'I' for Inactive)
REMARK    1  A    between atoms: C_1  and  C_10
REMARK    2  A    between atoms: N_2  and  C_6
REMARK    3  A    between atoms: C_5  and  C_24
REMARK    4  A    between atoms: C_6  and  O_7
REMARK    5  A    between atoms: O_7  and  C_8
REMARK    6  A    between atoms: C_14  and  O_16
REMARK    7  A    between atoms: O_16  and  C_17
REMARK                            x       y       z     vdW  Elec       q    Type
REMARK                         _______ _______ _______ _____ _____    ______ ____
ROOT
ATOM      1  C   UNL     1      -0.623  -1.131   0.000  0.00  0.00    +0.000 A 
ATOM      2  N   UNL     1       0.045  -1.616   0.000  0.00  0.00    +0.000 N 
ATOM      3  O   UNL     1      -0.210  -2.401   0.000  0.00  0.00    +0.000 OA
ATOM      4  C   UNL     1      -1.035  -2.401   0.000  0.00  0.00    +0.000 A 
ATOM      5  C   UNL     1      -1.290  -1.616   0.000  0.00  0.00    +0.000 A 
ATOM      6  O   UNL     1      -1.520  -3.068   0.000  0.00  0.00    +0.000 OA
ENDROOT
BRANCH   5   7
ATOM      7  C   UNL     1      -2.075  -1.361   0.000  0.00  0.00    +0.000 A 
ATOM      8  C   UNL     1      -2.688  -1.913   0.000  0.00  0.00    +0.000 A 
ATOM      9  C   UNL     1      -3.472  -1.658   0.000  0.00  0.00    +0.000 A 
ATOM     10  C   UNL     1      -3.644  -0.851   0.000  0.00  0.00    +0.000 A 
ATOM     11  C   UNL     1      -3.031  -0.299   0.000  0.00  0.00    +0.000 A 
ATOM     12  C   UNL     1      -2.246  -0.554   0.000  0.00  0.00    +0.000 A 
ATOM     13  F   UNL     1      -4.428  -0.596   0.000  0.00  0.00    +0.000 F 
ENDBRANCH   5   7
BRANCH   1  14
ATOM     14  C   UNL     1      -0.623  -0.306   0.000  0.00  0.00    +0.000 A 
ATOM     15  C   UNL     1      -1.337   0.106   0.000  0.00  0.00    +0.000 A 
ATOM     16  C   UNL     1      -1.337   0.931   0.000  0.00  0.00    +0.000 A 
ATOM     17  N   UNL     1      -0.623   1.344   0.000  0.00  0.00    +0.000 NA
ATOM     18  C   UNL     1       0.092   0.931   0.000  0.00  0.00    +0.000 A 
ATOM     19  N   UNL     1       0.092   0.106   0.000  0.00  0.00    +0.000 NA
BRANCH  18  20
ATOM     20  O   UNL     1       0.806   1.344   0.000  0.00  0.00    +0.000 OA
BRANCH  20  21
ATOM     21  C   UNL     1       0.806   2.169   0.000  0.00  0.00    +0.000 A 
ATOM     22  C   UNL     1       0.092   2.581   0.000  0.00  0.00    +0.000 A 
ATOM     23  C   UNL     1       0.092   3.406   0.000  0.00  0.00    +0.000 A 
ATOM     24  C   UNL     1       0.806   3.819   0.000  0.00  0.00    +0.000 A 
ATOM     25  C   UNL     1       1.521   3.406   0.000  0.00  0.00    +0.000 A 
ATOM     26  C   UNL     1       1.521   2.581   0.000  0.00  0.00    +0.000 A 
ATOM     27  O   UNL     1       2.235   2.169   0.000  0.00  0.00    +0.000 OA
ENDBRANCH  20  21
ENDBRANCH  18  20
ENDBRANCH   1  14
BRANCH   2  28
ATOM     28  C   UNL     1       0.829  -1.361   0.000  0.00  0.00    +0.000 C 
BRANCH  28  29
ATOM     29  O   UNL     1       1.442  -1.913   0.000  0.00  0.00    +0.000 OA
BRANCH  29  30
ATOM     30  C   UNL     1       2.227  -1.658   0.000  0.00  0.00    +0.000 C 
ATOM     31  C   UNL     1       2.840  -2.210   0.000  0.00  0.00    +0.000 C 
ENDBRANCH  29  30
ENDBRANCH  28  29
ENDBRANCH   2  28
TORSDOF 7
