REMARK  Name = PGX
REMARK  13 active torsions:
REMARK  status: ('A' for Active; 'I' for Inactive)
REMARK    1  A    between atoms: C_1  and  C_2
REMARK    2  A    between atoms: C_2  and  C_3
REMARK    3  A    between atoms: C_3  and  C_4
REMARK    4  A    between atoms: C_4  and  C_5
REMARK    5  A    between atoms: C_6  and  C_7
REMARK    6  A    between atoms: C_7  and  C_8
REMARK    7  A    between atoms: C_12  and  C_13
REMARK    8  A    between atoms: C_14  and  C_15
REMARK    9  A    between atoms: C_15  and  C_16
REMARK   10  A    between atoms: C_15  and  O_25
REMARK   11  A    between atoms: C_16  and  C_17
REMARK   12  A    between atoms: C_17  and  C_18
REMARK   13  A    between atoms: C_18  and  C_19
REMARK                            x       y       z     vdW  Elec       q    Type
REMARK                         _______ _______ _______ _____ _____    ______ ____
ROOT
ATOM      1  C   UNL     1      -1.082  -0.091   0.000  0.00  0.00    +0.000 C 
ATOM      2  C   UNL     1      -1.812   0.279   0.000  0.00  0.00    +0.000 C 
ATOM      3  C   UNL     1      -1.742   1.815   0.000  0.00  0.00    +0.000 C 
ATOM      4  C   UNL     1      -1.582   0.999   0.000  0.00  0.00    +0.000 C 
ATOM      5  C   UNL     1      -0.787   0.534   0.000  0.00  0.00    +0.000 C 
ATOM      6  O   UNL     1      -2.588  -0.111   0.000  0.00  0.00    +0.000 OA
ATOM      7  O   UNL     1      -2.222   0.549   0.000  0.00  0.00    +0.000 OA
ENDROOT
BRANCH   5   8
ATOM      8  C   UNL     1       0.002   0.778   0.000  0.00  0.00    +0.000 C 
ATOM      9  C   UNL     1       0.607   0.218   0.000  0.00  0.00    +0.000 C 
BRANCH   9  10
ATOM     10  C   UNL     1       1.395   0.462   0.000  0.00  0.00    +0.000 C 
BRANCH  10  11
ATOM     11  O   UNL     1       2.000  -0.099   0.000  0.00  0.00    +0.000 OA
ATOM     12  O   UNL     1       1.818  -0.903   0.000  0.00  0.00    +0.000 OA
ENDBRANCH  10  11
BRANCH  10  13
ATOM     13  C   UNL     1       1.578   1.266   0.000  0.00  0.00    +0.000 C 
BRANCH  13  14
ATOM     14  C   UNL     1       0.972   1.827   0.000  0.00  0.00    +0.000 C 
BRANCH  14  15
ATOM     15  C   UNL     1       1.155   2.631   0.000  0.00  0.00    +0.000 C 
BRANCH  15  16
ATOM     16  C   UNL     1       0.549   3.192   0.000  0.00  0.00    +0.000 C 
ATOM     17  C   UNL     1       0.732   3.996   0.000  0.00  0.00    +0.000 C 
ENDBRANCH  15  16
ENDBRANCH  14  15
ENDBRANCH  13  14
ENDBRANCH  10  13
ENDBRANCH   9  10
ENDBRANCH   5   8
BRANCH   1  18
ATOM     18  C   UNL     1      -0.814  -0.872   0.000  0.00  0.00    +0.000 C 
BRANCH  18  20
ATOM     19  C   UNL     1       0.263  -1.811   0.000  0.00  0.00    +0.000 C 
ATOM     20  C   UNL     1      -0.004  -1.030   0.000  0.00  0.00    +0.000 C 
BRANCH  19  21
ATOM     21  C   UNL     1      -0.279  -2.433   0.000  0.00  0.00    +0.000 C 
BRANCH  21  22
ATOM     22  C   UNL     1      -0.011  -3.213   0.000  0.00  0.00    +0.000 C 
BRANCH  22  23
ATOM     23  C   UNL     1       0.798  -3.371   0.000  0.00  0.00    +0.000 C 
BRANCH  23  24
ATOM     24  C   UNL     1       1.066  -4.152   0.000  0.00  0.00    +0.000 C 
ATOM     25  O   UNL     1       1.876  -4.310   0.000  0.00  0.00    +0.000 OA
ATOM     26  O   UNL     1       0.524  -4.774   0.000  0.00  0.00    +0.000 OA
ENDBRANCH  23  24
ENDBRANCH  22  23
ENDBRANCH  21  22
ENDBRANCH  19  21
ENDBRANCH  18  20
ENDBRANCH   1  18
TORSDOF 13
