REMARK  Name = PHC
REMARK  2 active torsions:
REMARK  status: ('A' for Active; 'I' for Inactive)
REMARK    1  A    between atoms: N_1  and  C_5
REMARK    2  A    between atoms: C_5  and  C_7
REMARK                            x       y       z     vdW  Elec       q    Type
REMARK                         _______ _______ _______ _____ _____    ______ ____
ROOT
ATOM      1  C   UNL     1       0.687   0.077   0.000  0.00  0.00    +0.000 C 
ATOM      2  C   UNL     1       1.401  -0.335   0.000  0.00  0.00    +0.000 C 
ENDROOT
BRANCH   1   3
ATOM      3  C   UNL     1      -0.028  -0.335   0.000  0.00  0.00    +0.000 A 
ATOM      4  C   UNL     1      -0.028  -1.160   0.000  0.00  0.00    +0.000 A 
ATOM      5  C   UNL     1      -0.742   0.077   0.000  0.00  0.00    +0.000 A 
ATOM      6  C   UNL     1      -0.742  -1.573   0.000  0.00  0.00    +0.000 A 
ATOM      7  C   UNL     1      -1.456  -0.335   0.000  0.00  0.00    +0.000 A 
ATOM      8  C   UNL     1      -1.456  -1.160   0.000  0.00  0.00    +0.000 A 
ENDBRANCH   1   3
BRANCH   1   9
ATOM      9  N   UNL     1       0.687   0.902   0.000  0.00  0.00    +0.000 N 
ATOM     10  C   UNL     1       1.401   1.315   0.000  0.00  0.00    +0.000 C 
ATOM     11  O   UNL     1       1.401   2.140   0.000  0.00  0.00    +0.000 OA
ATOM     12  C   UNL     1      -0.028   1.315   0.000  0.00  0.00    +0.000 C 
ENDBRANCH   1   9
TORSDOF 2
