REMARK  Name = PHI
REMARK  3 active torsions:
REMARK  status: ('A' for Active; 'I' for Inactive)
REMARK    1  A    between atoms: CA_2  and  C_3
REMARK    2  A    between atoms: CA_2  and  C_11
REMARK    3  A    between atoms: C_3  and  C_4
REMARK                            x       y       z     vdW  Elec       q    Type
REMARK                         _______ _______ _______ _____ _____    ______ ____
ROOT
ATOM      1  C   UNL     1      -0.068  -0.459   0.000  0.00  0.00    +0.000 A 
ATOM      2  C   UNL     1      -0.068  -1.284   0.000  0.00  0.00    +0.000 A 
ATOM      3  C   UNL     1      -0.782  -0.047   0.000  0.00  0.00    +0.000 A 
ATOM      4  C   UNL     1      -0.782  -1.697   0.000  0.00  0.00    +0.000 A 
ATOM      5  C   UNL     1      -1.497  -0.459   0.000  0.00  0.00    +0.000 A 
ATOM      6  C   UNL     1      -1.497  -1.284   0.000  0.00  0.00    +0.000 A 
ATOM      7  I   UNL     1      -2.211  -1.697   0.000  0.00  0.00    +0.000 I 
ENDROOT
BRANCH   1   8
ATOM      8  C   UNL     1       0.647  -0.047   0.000  0.00  0.00    +0.000 C 
BRANCH   8  10
ATOM      9  N   UNL     1      -0.068   1.191   0.000  0.00  0.00    +0.000 NA
ATOM     10  CA  UNL     1       0.647   0.778   0.000  0.00  0.00    +0.000 C 
BRANCH  10  11
ATOM     11  C   UNL     1       1.361   1.191   0.000  0.00  0.00    +0.000 C 
ATOM     12  O   UNL     1       1.361   2.016   0.000  0.00  0.00    +0.000 OA
ATOM     13  OXT UNL     1       2.076   0.778   0.000  0.00  0.00    +0.000 OA
ENDBRANCH  10  11
ENDBRANCH   8  10
ENDBRANCH   1   8
TORSDOF 3
