REMARK  Name = PHN
REMARK  0 active torsions:
REMARK  status: ('A' for Active; 'I' for Inactive)
REMARK                            x       y       z     vdW  Elec       q    Type
REMARK                         _______ _______ _______ _____ _____    ______ ____
ROOT
ATOM      1  N   UNL     1      -0.723  -1.020   0.000  0.00  0.00    +0.000 NA
ATOM      2  C   UNL     1      -1.548  -1.020   0.000  0.00  0.00    +0.000 A 
ATOM      3  C   UNL     1      -1.961  -0.306   0.000  0.00  0.00    +0.000 A 
ATOM      4  C   UNL     1      -1.548   0.409   0.000  0.00  0.00    +0.000 A 
ATOM      5  C   UNL     1      -0.723   0.409   0.000  0.00  0.00    +0.000 A 
ATOM      6  C   UNL     1      -0.311   1.123   0.000  0.00  0.00    +0.000 A 
ATOM      7  C   UNL     1       0.514   1.123   0.000  0.00  0.00    +0.000 A 
ATOM      8  C   UNL     1       0.927   0.409   0.000  0.00  0.00    +0.000 A 
ATOM      9  C   UNL     1       1.752   0.409   0.000  0.00  0.00    +0.000 A 
ATOM     10  C   UNL     1       2.164  -0.306   0.000  0.00  0.00    +0.000 A 
ATOM     11  C   UNL     1       1.752  -1.020   0.000  0.00  0.00    +0.000 A 
ATOM     12  N   UNL     1       0.927  -1.020   0.000  0.00  0.00    +0.000 NA
ATOM     13  C   UNL     1       0.514  -0.306   0.000  0.00  0.00    +0.000 A 
ATOM     14  C   UNL     1      -0.311  -0.306   0.000  0.00  0.00    +0.000 A 
ENDROOT
TORSDOF 0
