REMARK  Name = PIC
REMARK  3 active torsions:
REMARK  status: ('A' for Active; 'I' for Inactive)
REMARK    1  A    between atoms: C_1  and  C_2
REMARK    2  A    between atoms: C_1  and  P_17
REMARK    3  A    between atoms: C_4  and  C_9
REMARK                            x       y       z     vdW  Elec       q    Type
REMARK                         _______ _______ _______ _____ _____    ______ ____
ROOT
ATOM      1  C   UNL     1      -0.879  -0.291   0.000  0.00  0.00    +0.000 A 
ATOM      2  C   UNL     1      -0.879   0.534   0.000  0.00  0.00    +0.000 A 
ATOM      3  C   UNL     1       1.979   0.534   0.000  0.00  0.00    +0.000 A 
ATOM      4  C   UNL     1       1.979  -0.291   0.000  0.00  0.00    +0.000 A 
ATOM      5  C   UNL     1       1.264  -0.704   0.000  0.00  0.00    +0.000 A 
ATOM      6  C   UNL     1       0.550  -0.291   0.000  0.00  0.00    +0.000 A 
ATOM      7  C   UNL     1      -0.165  -0.704   0.000  0.00  0.00    +0.000 A 
ATOM      8  C   UNL     1      -0.165   0.946   0.000  0.00  0.00    +0.000 A 
ATOM      9  C   UNL     1       0.550   0.534   0.000  0.00  0.00    +0.000 A 
ATOM     10  C   UNL     1       1.264   0.946   0.000  0.00  0.00    +0.000 A 
ENDROOT
BRANCH   1  11
ATOM     11  C   UNL     1      -1.594  -0.704   0.000  0.00  0.00    +0.000 C 
ATOM     12  F   UNL     1      -2.006   0.011   0.000  0.00  0.00    +0.000 F 
ATOM     13  F   UNL     1      -1.181  -1.418   0.000  0.00  0.00    +0.000 F 
BRANCH  11  14
ATOM     14  P   UNL     1      -2.308  -1.116   0.000  0.00  0.00    +0.000 P 
ATOM     15  O   UNL     1      -3.023  -1.529   0.000  0.00  0.00    +0.000 OA
ATOM     16  O   UNL     1      -2.721  -0.402   0.000  0.00  0.00    +0.000 OA
ATOM     17  O   UNL     1      -1.896  -1.831   0.000  0.00  0.00    +0.000 OA
ENDBRANCH  11  14
ENDBRANCH   1  11
BRANCH   3  18
ATOM     18  C   UNL     1       2.693   0.946   0.000  0.00  0.00    +0.000 C 
ATOM     19  O   UNL     1       2.693   1.771   0.000  0.00  0.00    +0.000 OA
ATOM     20  O   UNL     1       3.408   0.534   0.000  0.00  0.00    +0.000 OA
ENDBRANCH   3  18
TORSDOF 3
