REMARK  Name = PIL
REMARK  5 active torsions:
REMARK  status: ('A' for Active; 'I' for Inactive)
REMARK    1  A    between atoms: C_8  and  N_9
REMARK    2  A    between atoms: C_10  and  C_12
REMARK    3  A    between atoms: C_15  and  O_16
REMARK    4  A    between atoms: C_18  and  O_20
REMARK    5  A    between atoms: O_20  and  C_21
REMARK                            x       y       z     vdW  Elec       q    Type
REMARK                         _______ _______ _______ _____ _____    ______ ____
ROOT
ATOM      1  C   UNL     1      -0.518   0.739   0.000  0.00  0.00    +0.000 A 
ATOM      2  C   UNL     1      -0.518   1.564   0.000  0.00  0.00    +0.000 A 
ATOM      3  C   UNL     1       0.197   1.976   0.000  0.00  0.00    +0.000 A 
ATOM      4  C   UNL     1       0.911   1.564   0.000  0.00  0.00    +0.000 A 
ATOM      5  C   UNL     1       0.911   0.739   0.000  0.00  0.00    +0.000 A 
ATOM      6  C   UNL     1       0.197   0.327   0.000  0.00  0.00    +0.000 A 
ENDROOT
BRANCH   1   8
ATOM      7  N   UNL     1      -1.947   0.739   0.000  0.00  0.00    +0.000 NA
ATOM      8  C   UNL     1      -1.232   0.327   0.000  0.00  0.00    +0.000 C 
ATOM      9  O   UNL     1      -1.232  -0.498   0.000  0.00  0.00    +0.000 OA
BRANCH   7  17
ATOM     10 CL   UNL     1      -1.947  -0.911   0.000  0.00  0.00    +0.000 Cl
ATOM     11  C   UNL     1      -2.661  -0.498   0.000  0.00  0.00    +0.000 A 
ATOM     12  C   UNL     1      -3.376  -0.911   0.000  0.00  0.00    +0.000 A 
ATOM     13  N   UNL     1      -4.090  -0.498   0.000  0.00  0.00    +0.000 NA
ATOM     14  C   UNL     1      -4.090   0.327   0.000  0.00  0.00    +0.000 A 
ATOM     15  C   UNL     1      -3.376   0.739   0.000  0.00  0.00    +0.000 A 
ATOM     16 CL   UNL     1      -3.376   1.564   0.000  0.00  0.00    +0.000 Cl
ATOM     17  C   UNL     1      -2.661   0.327   0.000  0.00  0.00    +0.000 A 
ENDBRANCH   7  17
ENDBRANCH   1   8
BRANCH   4  18
ATOM     18  O   UNL     1       1.625   1.976   0.000  0.00  0.00    +0.000 OA
ATOM     19  C   UNL     1       2.340   1.564   0.000  0.00  0.00    +0.000 C 
ENDBRANCH   4  18
BRANCH   5  20
ATOM     20  O   UNL     1       1.625   0.327   0.000  0.00  0.00    +0.000 OA
BRANCH  20  21
ATOM     21  C   UNL     1       1.625  -0.498   0.000  0.00  0.00    +0.000 C 
ATOM     22  C   UNL     1       2.293  -0.983   0.000  0.00  0.00    +0.000 C 
ATOM     23  C   UNL     1       2.038  -1.768   0.000  0.00  0.00    +0.000 C 
ATOM     24  C   UNL     1       1.213  -1.768   0.000  0.00  0.00    +0.000 C 
ATOM     25  C   UNL     1       0.958  -0.983   0.000  0.00  0.00    +0.000 C 
ENDBRANCH  20  21
ENDBRANCH   5  20
TORSDOF 5
