REMARK  Name = PIQ
REMARK  1 active torsions:
REMARK  status: ('A' for Active; 'I' for Inactive)
REMARK    1  A    between atoms: C_6  and  C_7
REMARK                            x       y       z     vdW  Elec       q    Type
REMARK                         _______ _______ _______ _____ _____    ______ ____
ROOT
ATOM      1  N   UNL     1      -2.802  -0.712   0.000  0.00  0.00    +0.000 NA
ATOM      2  C   UNL     1      -1.977  -0.712   0.000  0.00  0.00    +0.000 A 
ATOM      3  N   UNL     1      -1.492  -0.044   0.000  0.00  0.00    +0.000 N 
ATOM      4  C   UNL     1      -0.708  -0.299   0.000  0.00  0.00    +0.000 A 
ATOM      5  C   UNL     1       0.007   0.113   0.000  0.00  0.00    +0.000 A 
ATOM      6  C   UNL     1       0.721  -0.299   0.000  0.00  0.00    +0.000 A 
ATOM      7  N   UNL     1      -1.492  -1.379   0.000  0.00  0.00    +0.000 NA
ATOM      8  C   UNL     1      -1.747   0.740   0.000  0.00  0.00    +0.000 C 
ATOM      9  C   UNL     1      -0.708  -1.124   0.000  0.00  0.00    +0.000 A 
ATOM     10  N   UNL     1       0.007  -1.537   0.000  0.00  0.00    +0.000 NA
ATOM     11  C   UNL     1       0.721  -1.124   0.000  0.00  0.00    +0.000 A 
ENDROOT
BRANCH   6  12
ATOM     12  C   UNL     1       1.435   0.113   0.000  0.00  0.00    +0.000 A 
ATOM     13  C   UNL     1       1.435   0.938   0.000  0.00  0.00    +0.000 A 
ATOM     14  C   UNL     1       2.150   1.351   0.000  0.00  0.00    +0.000 A 
ATOM     15  C   UNL     1       2.865   0.938   0.000  0.00  0.00    +0.000 A 
ATOM     16  C   UNL     1       2.865   0.113   0.000  0.00  0.00    +0.000 A 
ATOM     17  C   UNL     1       2.150  -0.299   0.000  0.00  0.00    +0.000 A 
ENDBRANCH   6  12
TORSDOF 1
