REMARK  Name = PIX
REMARK  5 active torsions:
REMARK  status: ('A' for Active; 'I' for Inactive)
REMARK    1  A    between atoms: C_8  and  C_9
REMARK    2  A    between atoms: C_9  and  C_10
REMARK    3  A    between atoms: C_15  and  O_16
REMARK    4  A    between atoms: O_16  and  C_17
REMARK    5  A    between atoms: C_22  and  C_23
REMARK                            x       y       z     vdW  Elec       q    Type
REMARK                         _______ _______ _______ _____ _____    ______ ____
ROOT
ATOM      1  C   UNL     1      -0.276  -0.267   0.000  0.00  0.00    +0.000 A 
ATOM      2  C   UNL     1       0.439  -0.679   0.000  0.00  0.00    +0.000 A 
ATOM      3  C   UNL     1       0.439  -1.504   0.000  0.00  0.00    +0.000 A 
ATOM      4  C   UNL     1      -0.276  -1.917   0.000  0.00  0.00    +0.000 A 
ATOM      5  C   UNL     1      -0.990  -0.679   0.000  0.00  0.00    +0.000 A 
ATOM      6  C   UNL     1      -0.990  -1.504   0.000  0.00  0.00    +0.000 A 
ENDROOT
BRANCH   1   7
ATOM      7  C   UNL     1      -0.276   0.558   0.000  0.00  0.00    +0.000 C 
BRANCH   7  15
ATOM      8  O   UNL     1       2.582   3.034   0.000  0.00  0.00    +0.000 OA
ATOM      9  C   UNL     1       2.582   2.208   0.000  0.00  0.00    +0.000 C 
ATOM     10  N   UNL     1       1.868   1.796   0.000  0.00  0.00    +0.000 N 
ATOM     11  C   UNL     1       1.868   0.971   0.000  0.00  0.00    +0.000 C 
ATOM     12  C   UNL     1       1.153   0.558   0.000  0.00  0.00    +0.000 C 
ATOM     13  C   UNL     1       1.153   2.208   0.000  0.00  0.00    +0.000 C 
ATOM     14  C   UNL     1       0.439   1.796   0.000  0.00  0.00    +0.000 C 
ATOM     15  C   UNL     1       0.439   0.971   0.000  0.00  0.00    +0.000 C 
ATOM     16  O   UNL     1       3.297   1.796   0.000  0.00  0.00    +0.000 OA
ENDBRANCH   7  15
ENDBRANCH   1   7
BRANCH   6  17
ATOM     17  O   UNL     1      -1.704  -1.917   0.000  0.00  0.00    +0.000 OA
BRANCH  17  18
ATOM     18  C   UNL     1      -2.419  -1.504   0.000  0.00  0.00    +0.000 A 
ATOM     19  C   UNL     1      -3.134  -1.917   0.000  0.00  0.00    +0.000 A 
ATOM     20  C   UNL     1      -3.848  -1.504   0.000  0.00  0.00    +0.000 A 
ATOM     21  N   UNL     1      -2.419  -0.679   0.000  0.00  0.00    +0.000 NA
ATOM     22  C   UNL     1      -3.134  -0.267   0.000  0.00  0.00    +0.000 A 
ATOM     23  C   UNL     1      -3.848  -0.679   0.000  0.00  0.00    +0.000 A 
BRANCH  23  24
ATOM     24  C   UNL     1      -4.562  -0.267   0.000  0.00  0.00    +0.000 C 
ATOM     25  F   UNL     1      -5.277   0.146   0.000  0.00  0.00    +0.000 F 
ATOM     26  F   UNL     1      -4.150   0.448   0.000  0.00  0.00    +0.000 F 
ATOM     27  F   UNL     1      -4.975  -0.981   0.000  0.00  0.00    +0.000 F 
ENDBRANCH  23  24
ENDBRANCH  17  18
ENDBRANCH   6  17
TORSDOF 5
