REMARK  Name = PL7
REMARK  12 active torsions:
REMARK  status: ('A' for Active; 'I' for Inactive)
REMARK    1  A    between atoms: C_2  and  C_4
REMARK    2  A    between atoms: C_4  and  C_5
REMARK    3  A    between atoms: C_5  and  C_6
REMARK    4  A    between atoms: C_6  and  C_7
REMARK    5  A    between atoms: N_10  and  O_11
REMARK    6  A    between atoms: O_11  and  C_12
REMARK    7  A    between atoms: C_12  and  C_13
REMARK    8  A    between atoms: C_13  and  C_14
REMARK    9  A    between atoms: C_13  and  N_16
REMARK   10  A    between atoms: C_17  and  C_19
REMARK   11  A    between atoms: C_19  and  O_20
REMARK   12  A    between atoms: O_20  and  C_21
REMARK                            x       y       z     vdW  Elec       q    Type
REMARK                         _______ _______ _______ _____ _____    ______ ____
ROOT
ATOM      1  C   UNK A   1       1.657   0.366   0.000  0.00  0.00    +0.000 C 
ENDROOT
BRANCH   1   2
ATOM      2  N   UNK A   1       2.371  -0.046   0.000  0.00  0.00    +0.000 NA
ATOM      3  C   UNK A   0       3.086   0.366   0.000  0.00  0.00    +0.000 C 
ATOM      4  O   UNK A   0       3.086   1.192   0.000  0.00  0.00    +0.000 OA
BRANCH   3   5
ATOM      5  C   UNK A   0       3.800  -0.046   0.000  0.00  0.00    +0.000 C 
BRANCH   5   6
ATOM      6  O   UNK A   0       4.515   0.366   0.000  0.00  0.00    +0.000 OA
BRANCH   6   7
ATOM      7  C   UNK A   0       5.229  -0.046   0.000  0.00  0.00    +0.000 A 
ATOM      8  C   UNK A   0       5.944   0.366   0.000  0.00  0.00    +0.000 A 
ATOM      9  C   UNK A   0       6.658  -0.046   0.000  0.00  0.00    +0.000 A 
ATOM     10  C   UNK A   0       6.658  -0.871   0.000  0.00  0.00    +0.000 A 
ATOM     11  C   UNK A   0       5.944  -1.284   0.000  0.00  0.00    +0.000 A 
ATOM     12  C   UNK A   0       5.229  -0.871   0.000  0.00  0.00    +0.000 A 
ENDBRANCH   6   7
ENDBRANCH   5   6
ENDBRANCH   3   5
ENDBRANCH   1   2
BRANCH   1  13
ATOM     13  C   UNK A   1       1.657   1.192   0.000  0.00  0.00    +0.000 C 
ATOM     14  O   UNK A   1       2.371   1.604   0.000  0.00  0.00    +0.000 OA
ATOM     15  O   UNK A   1       0.942   1.604   0.000  0.00  0.00    +0.000 OA
ENDBRANCH   1  13
BRANCH   1  16
ATOM     16  C   UNK A   1       0.942  -0.046   0.000  0.00  0.00    +0.000 C 
BRANCH  16  17
ATOM     17  O   UNK A   1       0.228   0.366   0.000  0.00  0.00    +0.000 OA
BRANCH  17  19
ATOM     18  C   UNK A   1      -1.201   0.366   0.000  0.00  0.00    +0.000 C 
ATOM     19  N   UNK A   1      -0.487  -0.046   0.000  0.00  0.00    +0.000 NA
BRANCH  18  20
ATOM     20  C   UNK A   1      -1.916  -0.046   0.000  0.00  0.00    +0.000 C 
ATOM     21  O   UNK A   1      -1.916  -0.871   0.000  0.00  0.00    +0.000 OA
ATOM     22  O   UNK A   1      -2.630   0.366   0.000  0.00  0.00    +0.000 OA
ENDBRANCH  18  20
BRANCH  18  23
ATOM     23  C   UNK A   1      -1.201   1.192   0.000  0.00  0.00    +0.000 C 
BRANCH  23  24
ATOM     24  C   UNK A   1      -1.916   1.604   0.000  0.00  0.00    +0.000 C 
BRANCH  24  26
ATOM     25  O   UNK A   1      -2.630   2.841   0.000  0.00  0.00    +0.000 OA
ATOM     26  C   UNK A   1      -1.916   2.429   0.000  0.00  0.00    +0.000 C 
ATOM     27  O   UNK A   1      -1.201   2.841   0.000  0.00  0.00    +0.000 OA
ENDBRANCH  24  26
ENDBRANCH  23  24
ENDBRANCH  18  23
ENDBRANCH  17  19
ENDBRANCH  16  17
ENDBRANCH   1  16
TORSDOF 12
