REMARK  Name = PLB
REMARK  5 active torsions:
REMARK  status: ('A' for Active; 'I' for Inactive)
REMARK    1  A    between atoms: C_8  and  C_9
REMARK    2  A    between atoms: N_11  and  C_12
REMARK    3  A    between atoms: C_15  and  O_21
REMARK    4  A    between atoms: C_17  and  C_18
REMARK    5  A    between atoms: O_21  and  C_22
REMARK                            x       y       z     vdW  Elec       q    Type
REMARK                         _______ _______ _______ _____ _____    ______ ____
ROOT
ATOM      1  C   UNL     1       0.375   0.164   0.000  0.00  0.00    +0.000 A 
ATOM      2  C   UNL     1       1.090  -0.249   0.000  0.00  0.00    +0.000 A 
ATOM      3  C   UNL     1       1.090  -1.074   0.000  0.00  0.00    +0.000 A 
ATOM      4  C   UNL     1       0.375  -1.486   0.000  0.00  0.00    +0.000 A 
ATOM      5  C   UNL     1      -0.339  -1.074   0.000  0.00  0.00    +0.000 A 
ATOM      6  C   UNL     1      -0.339  -0.249   0.000  0.00  0.00    +0.000 A 
ENDROOT
BRANCH   1   9
ATOM      7  C   UNL     1       1.090   1.401   0.000  0.00  0.00    +0.000 C 
ATOM      8  O   UNL     1       1.804   0.989   0.000  0.00  0.00    +0.000 OA
ATOM      9  N   UNL     1       0.375   0.989   0.000  0.00  0.00    +0.000 NA
BRANCH   7  17
ATOM     10 CL   UNL     1       1.090   4.701   0.000  0.00  0.00    +0.000 Cl
ATOM     11  C   UNL     1       1.090   3.876   0.000  0.00  0.00    +0.000 A 
ATOM     12  C   UNL     1       1.804   3.464   0.000  0.00  0.00    +0.000 A 
ATOM     13  C   UNL     1       1.804   2.639   0.000  0.00  0.00    +0.000 A 
ATOM     14 CL   UNL     1       2.519   2.226   0.000  0.00  0.00    +0.000 Cl
ATOM     15  C   UNL     1       0.375   3.464   0.000  0.00  0.00    +0.000 A 
ATOM     16  C   UNL     1       0.375   2.639   0.000  0.00  0.00    +0.000 A 
ATOM     17  C   UNL     1       1.090   2.226   0.000  0.00  0.00    +0.000 A 
ENDBRANCH   7  17
ENDBRANCH   1   9
BRANCH   6  18
ATOM     18  C   UNL     1      -1.054   0.164   0.000  0.00  0.00    +0.000 C 
ATOM     19  O   UNL     1      -1.768  -0.249   0.000  0.00  0.00    +0.000 OA
ATOM     20  O   UNL     1      -1.054   0.989   0.000  0.00  0.00    +0.000 OA
ENDBRANCH   6  18
BRANCH   4  21
ATOM     21  O   UNL     1       0.375  -2.311   0.000  0.00  0.00    +0.000 OA
BRANCH  21  22
ATOM     22  C   UNL     1      -0.339  -2.724   0.000  0.00  0.00    +0.000 A 
ATOM     23  N   UNL     1      -0.339  -3.549   0.000  0.00  0.00    +0.000 NA
ATOM     24  C   UNL     1      -1.054  -3.961   0.000  0.00  0.00    +0.000 A 
ATOM     25  C   UNL     1      -1.768  -3.549   0.000  0.00  0.00    +0.000 A 
ATOM     26  C   UNL     1      -1.768  -2.724   0.000  0.00  0.00    +0.000 A 
ATOM     27  N   UNL     1      -1.054  -2.311   0.000  0.00  0.00    +0.000 NA
ENDBRANCH  21  22
ENDBRANCH   4  21
TORSDOF 5
