REMARK  Name = PLH
REMARK  9 active torsions:
REMARK  status: ('A' for Active; 'I' for Inactive)
REMARK    1  A    between atoms: C_1  and  C_2
REMARK    2  A    between atoms: C_2  and  C_3
REMARK    3  A    between atoms: C_3  and  C_4
REMARK    4  A    between atoms: C_3  and  C_8
REMARK    5  A    between atoms: C_4  and  C_5
REMARK    6  A    between atoms: C_9  and  C_10
REMARK    7  A    between atoms: C_9  and  C_12
REMARK    8  A    between atoms: C_9  and  N_20
REMARK    9  A    between atoms: C_12  and  C_13
REMARK                            x       y       z     vdW  Elec       q    Type
REMARK                         _______ _______ _______ _____ _____    ______ ____
ROOT
ATOM      1  C   UNL     1       0.742  -0.272   0.000  0.00  0.00    +0.000 C 
ATOM      2  N   UNL     1       0.202   0.351   0.000  0.00  0.00    +0.000 NA
ATOM      3  O   UNL     1       0.472  -1.052   0.000  0.00  0.00    +0.000 OA
ENDROOT
BRANCH   1   4
ATOM      4  C   UNL     1       1.552  -0.116   0.000  0.00  0.00    +0.000 C 
BRANCH   4   5
ATOM      5  C   UNL     1       2.092  -0.740   0.000  0.00  0.00    +0.000 C 
BRANCH   5   6
ATOM      6  C   UNL     1       2.902  -0.584   0.000  0.00  0.00    +0.000 C 
ATOM      7  N   UNL     1       3.442  -1.208   0.000  0.00  0.00    +0.000 NA
ATOM      8  O   UNL     1       4.253  -1.052   0.000  0.00  0.00    +0.000 OA
ATOM      9  O   UNL     1       3.172   0.195   0.000  0.00  0.00    +0.000 OA
ENDBRANCH   5   6
ENDBRANCH   4   5
BRANCH   4  10
ATOM     10  C   UNL     1       1.822   0.663   0.000  0.00  0.00    +0.000 C 
BRANCH  10  11
ATOM     11  C   UNL     1       1.282   1.287   0.000  0.00  0.00    +0.000 C 
ATOM     12  C   UNL     1       0.472   1.131   0.000  0.00  0.00    +0.000 C 
ATOM     13  C   UNL     1       1.552   2.066   0.000  0.00  0.00    +0.000 C 
ENDBRANCH  10  11
ENDBRANCH   4  10
ENDBRANCH   1   4
BRANCH   2  14
ATOM     14  C   UNL     1      -0.608   0.195   0.000  0.00  0.00    +0.000 C 
BRANCH  14  15
ATOM     15  C   UNL     1      -0.878  -0.584   0.000  0.00  0.00    +0.000 C 
ATOM     16  C   UNL     1      -0.608  -1.987   0.000  0.00  0.00    +0.000 C 
ATOM     17  N   UNL     1      -0.338  -1.208   0.000  0.00  0.00    +0.000 NA
ATOM     18  O   UNL     1      -1.688  -0.740   0.000  0.00  0.00    +0.000 OA
ENDBRANCH  14  15
BRANCH  14  19
ATOM     19  C   UNL     1      -1.148   0.819   0.000  0.00  0.00    +0.000 C 
BRANCH  19  20
ATOM     20  C   UNL     1      -1.958   0.663   0.000  0.00  0.00    +0.000 A 
ATOM     21  C   UNL     1      -2.228  -0.116   0.000  0.00  0.00    +0.000 A 
ATOM     22  C   UNL     1      -3.038  -0.272   0.000  0.00  0.00    +0.000 A 
ATOM     23  C   UNL     1      -3.579   0.351   0.000  0.00  0.00    +0.000 A 
ATOM     24  C   UNL     1      -3.309   1.131   0.000  0.00  0.00    +0.000 A 
ATOM     25  C   UNL     1      -2.498   1.287   0.000  0.00  0.00    +0.000 A 
ENDBRANCH  19  20
ENDBRANCH  14  19
ENDBRANCH   2  14
TORSDOF 9
