REMARK  Name = PM1
REMARK  4 active torsions:
REMARK  status: ('A' for Active; 'I' for Inactive)
REMARK    1  A    between atoms: C_1  and  C_17
REMARK    2  A    between atoms: C_7  and  C_10
REMARK    3  A    between atoms: C_10  and  C_11
REMARK    4  A    between atoms: C_17  and  C_18
REMARK                            x       y       z     vdW  Elec       q    Type
REMARK                         _______ _______ _______ _____ _____    ______ ____
ROOT
ATOM      1  C   UNL     1       1.529   0.766   0.000  0.00  0.00    +0.000 A 
ATOM      2  C   UNL     1       0.814   0.354   0.000  0.00  0.00    +0.000 A 
ATOM      3  N   UNL     1       0.100   0.766   0.000  0.00  0.00    +0.000 N 
ATOM      4  C   UNL     1       0.100   1.591   0.000  0.00  0.00    +0.000 A 
ATOM      5  C   UNL     1       0.814   2.004   0.000  0.00  0.00    +0.000 A 
ATOM      6  C   UNL     1       1.529   1.591   0.000  0.00  0.00    +0.000 A 
ATOM      7  C   UNL     1      -0.685   0.511   0.000  0.00  0.00    +0.000 A 
ATOM      8  C   UNL     1      -1.170   1.179   0.000  0.00  0.00    +0.000 A 
ATOM      9  N   UNL     1      -0.685   1.846   0.000  0.00  0.00    +0.000 NA
ATOM     10  N   UNL     1      -1.995   1.179   0.000  0.00  0.00    +0.000 NA
ENDROOT
BRANCH   7  11
ATOM     11  C   UNL     1      -0.940  -0.273   0.000  0.00  0.00    +0.000 C 
ATOM     12  O   UNL     1      -0.388  -0.886   0.000  0.00  0.00    +0.000 OA
BRANCH  11  13
ATOM     13  C   UNL     1      -1.747  -0.445   0.000  0.00  0.00    +0.000 A 
ATOM     14  C   UNL     1      -2.002  -1.230   0.000  0.00  0.00    +0.000 A 
ATOM     15  C   UNL     1      -2.809  -1.401   0.000  0.00  0.00    +0.000 A 
ATOM     16  C   UNL     1      -3.361  -0.788   0.000  0.00  0.00    +0.000 A 
ATOM     17  C   UNL     1      -3.106  -0.003   0.000  0.00  0.00    +0.000 A 
ATOM     18  C   UNL     1      -2.299   0.168   0.000  0.00  0.00    +0.000 A 
ENDBRANCH  11  13
ENDBRANCH   7  11
BRANCH   1  19
ATOM     19  C   UNL     1       2.243   0.354   0.000  0.00  0.00    +0.000 C 
ATOM     20  O   UNL     1       2.958   0.766   0.000  0.00  0.00    +0.000 OA
BRANCH  19  21
ATOM     21  C   UNL     1       2.243  -0.471   0.000  0.00  0.00    +0.000 A 
ATOM     22  C   UNL     1       2.958  -0.884   0.000  0.00  0.00    +0.000 A 
ATOM     23  C   UNL     1       2.958  -1.709   0.000  0.00  0.00    +0.000 A 
ATOM     24  C   UNL     1       2.243  -2.121   0.000  0.00  0.00    +0.000 A 
ATOM     25  C   UNL     1       1.529  -1.709   0.000  0.00  0.00    +0.000 A 
ATOM     26  C   UNL     1       1.529  -0.884   0.000  0.00  0.00    +0.000 A 
ATOM     27  F   UNL     1       3.672  -0.471   0.000  0.00  0.00    +0.000 F 
ATOM     28  F   UNL     1       0.814  -0.471   0.000  0.00  0.00    +0.000 F 
ENDBRANCH  19  21
ENDBRANCH   1  19
TORSDOF 4
