REMARK  Name = PM2
REMARK  6 active torsions:
REMARK  status: ('A' for Active; 'I' for Inactive)
REMARK    1  A    between atoms: C_1  and  C_13
REMARK    2  A    between atoms: C_4  and  C_7
REMARK    3  A    between atoms: C_11  and  C_17
REMARK    4  A    between atoms: C_20  and  C_22
REMARK    5  A    between atoms: C_22  and  C_24
REMARK    6  A    between atoms: C_24  and  C_25
REMARK                            x       y       z     vdW  Elec       q    Type
REMARK                         _______ _______ _______ _____ _____    ______ ____
ROOT
ATOM      1  C   UNL     1      -1.143  -1.635   0.000  0.00  0.00    +0.000 C 
ATOM      2  C   UNL     1      -1.143  -0.810   0.000  0.00  0.00    +0.000 C 
ATOM      3  C   UNL     1      -0.428   0.427   0.000  0.00  0.00    +0.000 C 
ATOM      4  O   UNL     1      -1.143   0.840   0.000  0.00  0.00    +0.000 OA
ATOM      5  C   UNL     1      -0.428  -2.047   0.000  0.00  0.00    +0.000 C 
ATOM      6  N   UNL     1      -0.428  -0.398   0.000  0.00  0.00    +0.000 N 
ATOM      7  C   UNL     1       0.286  -0.810   0.000  0.00  0.00    +0.000 C 
ATOM      8  C   UNL     1       0.286  -1.635   0.000  0.00  0.00    +0.000 C 
ENDROOT
BRANCH   3   9
ATOM      9  C   UNL     1       0.286   0.840   0.000  0.00  0.00    +0.000 A 
ATOM     10  C   UNL     1       0.286   1.665   0.000  0.00  0.00    +0.000 A 
ATOM     11  C   UNL     1       1.000   0.427   0.000  0.00  0.00    +0.000 A 
ATOM     12  C   UNL     1       1.000   2.078   0.000  0.00  0.00    +0.000 A 
ATOM     13  N   UNL     1       1.715   0.840   0.000  0.00  0.00    +0.000 NA
ATOM     14  C   UNL     1       1.715   1.665   0.000  0.00  0.00    +0.000 A 
BRANCH  12  15
ATOM     15  C   UNL     1       1.000   2.902   0.000  0.00  0.00    +0.000 C 
BRANCH  15  16
ATOM     16  C   UNL     1       0.286   3.315   0.000  0.00  0.00    +0.000 C 
BRANCH  16  17
ATOM     17  C   UNL     1       0.286   4.140   0.000  0.00  0.00    +0.000 A 
ATOM     18  C   UNL     1      -0.428   4.553   0.000  0.00  0.00    +0.000 A 
ATOM     19  C   UNL     1       1.000   4.553   0.000  0.00  0.00    +0.000 A 
ATOM     20  C   UNL     1      -0.428   5.378   0.000  0.00  0.00    +0.000 A 
ATOM     21  C   UNL     1       1.000   5.378   0.000  0.00  0.00    +0.000 A 
ATOM     22  C   UNL     1       0.286   5.790   0.000  0.00  0.00    +0.000 A 
ENDBRANCH  16  17
ENDBRANCH  15  16
ENDBRANCH  12  15
ENDBRANCH   3   9
BRANCH   5  23
ATOM     23  C   UNL     1      -0.428  -2.873   0.000  0.00  0.00    +0.000 A 
ATOM     24  C   UNL     1       0.286  -3.285   0.000  0.00  0.00    +0.000 A 
ATOM     25  C   UNL     1      -1.143  -3.285   0.000  0.00  0.00    +0.000 A 
ATOM     26  C   UNL     1       0.286  -4.110   0.000  0.00  0.00    +0.000 A 
ATOM     27  C   UNL     1      -1.143  -4.110   0.000  0.00  0.00    +0.000 A 
ATOM     28  C   UNL     1      -0.428  -4.522   0.000  0.00  0.00    +0.000 A 
BRANCH  26  29
ATOM     29  C   UNL     1       1.000  -4.522   0.000  0.00  0.00    +0.000 C 
ATOM     30  N   UNL     1       1.000  -5.348   0.000  0.00  0.00    +0.000 NA
ENDBRANCH  26  29
ENDBRANCH   5  23
TORSDOF 6
