REMARK  Name = PM5
REMARK  17 active torsions:
REMARK  status: ('A' for Active; 'I' for Inactive)
REMARK    1  A    between atoms: P_2  and  O_4
REMARK    2  A    between atoms: O_4  and  C_5
REMARK    3  A    between atoms: C_5  and  C_6
REMARK    4  A    between atoms: C_6  and  C_9
REMARK    5  A    between atoms: C_9  and  C_11
REMARK    6  A    between atoms: N_13  and  C_14
REMARK    7  A    between atoms: C_14  and  C_15
REMARK    8  A    between atoms: C_15  and  C_16
REMARK    9  A    between atoms: N_18  and  C_19
REMARK   10  A    between atoms: C_19  and  C_20
REMARK   11  A    between atoms: C_20  and  S_21
REMARK   12  A    between atoms: S_21  and  C_22
REMARK   13  A    between atoms: C_22  and  C_24
REMARK   14  A    between atoms: C_24  and  C_25
REMARK   15  A    between atoms: C_25  and  C_26
REMARK   16  A    between atoms: C_26  and  C_27
REMARK   17  A    between atoms: C_27  and  C_28
REMARK                            x       y       z     vdW  Elec       q    Type
REMARK                         _______ _______ _______ _____ _____    ______ ____
ROOT
ATOM      1  C   UNL     1      -0.976  -0.044   0.000  0.00  0.00    +0.000 C 
ENDROOT
BRANCH   1   4
ATOM      2  C   UNL     1      -2.405  -0.044   0.000  0.00  0.00    +0.000 C 
ATOM      3  O   UNL     1      -2.405  -0.869   0.000  0.00  0.00    +0.000 OA
ATOM      4  N   UNL     1      -1.690   0.368   0.000  0.00  0.00    +0.000 NA
BRANCH   2   5
ATOM      5  C   UNL     1      -3.119   0.368   0.000  0.00  0.00    +0.000 C 
ATOM      6  O   UNL     1      -3.119   1.194   0.000  0.00  0.00    +0.000 OA
BRANCH   5   7
ATOM      7  C   UNL     1      -3.834  -0.044   0.000  0.00  0.00    +0.000 C 
ATOM      8  C   UNL     1      -3.421  -0.758   0.000  0.00  0.00    +0.000 C 
ATOM      9  C   UNL     1      -4.246   0.670   0.000  0.00  0.00    +0.000 C 
BRANCH   7  10
ATOM     10  C   UNL     1      -4.548  -0.457   0.000  0.00  0.00    +0.000 C 
BRANCH  10  11
ATOM     11  O   UNL     1      -5.263  -0.044   0.000  0.00  0.00    +0.000 OA
BRANCH  11  13
ATOM     12  O   UNL     1      -6.692  -0.044   0.000  0.00  0.00    +0.000 OA
ATOM     13  P   UNL     1      -5.977  -0.457   0.000  0.00  0.00    +0.000 P 
ATOM     14  O   UNL     1      -5.977  -1.282   0.000  0.00  0.00    +0.000 OA
ATOM     15  H   UNL     1      -6.609  -0.821   0.000  0.00  0.00    +0.000 HD
ENDBRANCH  11  13
ENDBRANCH  10  11
ENDBRANCH   7  10
ENDBRANCH   5   7
ENDBRANCH   2   5
ENDBRANCH   1   4
BRANCH   1  16
ATOM     16  C   UNL     1      -0.261   0.368   0.000  0.00  0.00    +0.000 C 
BRANCH  16  17
ATOM     17  C   UNL     1       0.453  -0.044   0.000  0.00  0.00    +0.000 C 
ATOM     18  O   UNL     1       0.453  -0.869   0.000  0.00  0.00    +0.000 OA
ATOM     19  N   UNL     1       1.168   0.368   0.000  0.00  0.00    +0.000 NA
BRANCH  19  20
ATOM     20  C   UNL     1       1.882  -0.044   0.000  0.00  0.00    +0.000 C 
BRANCH  20  21
ATOM     21  C   UNL     1       2.597   0.368   0.000  0.00  0.00    +0.000 C 
BRANCH  21  22
ATOM     22  S   UNL     1       3.311  -0.044   0.000  0.00  0.00    +0.000 S 
BRANCH  22  23
ATOM     23  C   UNL     1       4.026   0.368   0.000  0.00  0.00    +0.000 C 
ATOM     24  O   UNL     1       4.026   1.194   0.000  0.00  0.00    +0.000 OA
BRANCH  23  25
ATOM     25  C   UNL     1       4.740  -0.044   0.000  0.00  0.00    +0.000 C 
BRANCH  25  26
ATOM     26  C   UNL     1       5.455   0.368   0.000  0.00  0.00    +0.000 C 
BRANCH  26  27
ATOM     27  C   UNL     1       6.170  -0.044   0.000  0.00  0.00    +0.000 C 
BRANCH  27  28
ATOM     28  C   UNL     1       6.884   0.368   0.000  0.00  0.00    +0.000 C 
BRANCH  28  29
ATOM     29  C   UNL     1       7.598  -0.044   0.000  0.00  0.00    +0.000 C 
ATOM     30  C   UNL     1       8.313   0.368   0.000  0.00  0.00    +0.000 C 
ENDBRANCH  28  29
ENDBRANCH  27  28
ENDBRANCH  26  27
ENDBRANCH  25  26
ENDBRANCH  23  25
ENDBRANCH  22  23
ENDBRANCH  21  22
ENDBRANCH  20  21
ENDBRANCH  19  20
ENDBRANCH  16  17
ENDBRANCH   1  16
TORSDOF 17
