REMARK  Name = PMA
REMARK  4 active torsions:
REMARK  status: ('A' for Active; 'I' for Inactive)
REMARK    1  A    between atoms: C_1  and  C_9
REMARK    2  A    between atoms: C_2  and  C_10
REMARK    3  A    between atoms: C_4  and  C_7
REMARK    4  A    between atoms: C_5  and  C_8
REMARK                            x       y       z     vdW  Elec       q    Type
REMARK                         _______ _______ _______ _____ _____    ______ ____
ROOT
ATOM      1  C   UNL     1       0.643   0.312   0.000  0.00  0.00    +0.000 A 
ATOM      2  C   UNL     1       0.643  -0.513   0.000  0.00  0.00    +0.000 A 
ATOM      3  C   UNL     1      -0.071   0.724   0.000  0.00  0.00    +0.000 A 
ATOM      4  C   UNL     1      -0.785  -0.513   0.000  0.00  0.00    +0.000 A 
ATOM      5  C   UNL     1      -0.785   0.312   0.000  0.00  0.00    +0.000 A 
ATOM      6  C   UNL     1      -0.071  -0.926   0.000  0.00  0.00    +0.000 A 
ENDROOT
BRANCH   4   7
ATOM      7  C   UNL     1      -1.500  -0.926   0.000  0.00  0.00    +0.000 C 
ATOM      8  O   UNL     1      -1.500  -1.751   0.000  0.00  0.00    +0.000 OA
ATOM      9  O   UNL     1      -2.215  -0.513   0.000  0.00  0.00    +0.000 OA
ENDBRANCH   4   7
BRANCH   5  10
ATOM     10  C   UNL     1      -1.500   0.724   0.000  0.00  0.00    +0.000 C 
ATOM     11  O   UNL     1      -2.215   0.312   0.000  0.00  0.00    +0.000 OA
ATOM     12  O   UNL     1      -1.500   1.549   0.000  0.00  0.00    +0.000 OA
ENDBRANCH   5  10
BRANCH   1  13
ATOM     13  C   UNL     1       1.358   0.724   0.000  0.00  0.00    +0.000 C 
ATOM     14  O   UNL     1       2.072   0.312   0.000  0.00  0.00    +0.000 OA
ATOM     15  O   UNL     1       1.358   1.549   0.000  0.00  0.00    +0.000 OA
ENDBRANCH   1  13
BRANCH   2  16
ATOM     16  C   UNL     1       1.358  -0.926   0.000  0.00  0.00    +0.000 C 
ATOM     17  O   UNL     1       1.358  -1.751   0.000  0.00  0.00    +0.000 OA
ATOM     18  O   UNL     1       2.072  -0.513   0.000  0.00  0.00    +0.000 OA
ENDBRANCH   2  16
TORSDOF 4
