REMARK  Name = PMD
REMARK  2 active torsions:
REMARK  status: ('A' for Active; 'I' for Inactive)
REMARK    1  A    between atoms: C_4  and  C_7
REMARK    2  A    between atoms: C_7  and  N_28
REMARK                            x       y       z     vdW  Elec       q    Type
REMARK                         _______ _______ _______ _____ _____    ______ ____
ROOT
ATOM      1  C   UNL     1       0.107  -1.062   0.000  0.00  0.00    +0.000 A 
ATOM      2  C   UNL     1       0.712  -0.501   0.000  0.00  0.00    +0.000 A 
ATOM      3  C   UNL     1       1.500  -0.744   0.000  0.00  0.00    +0.000 A 
ATOM      4  C   UNL     1       1.684  -1.549   0.000  0.00  0.00    +0.000 A 
ATOM      5  C   UNL     1       1.079  -2.110   0.000  0.00  0.00    +0.000 A 
ATOM      6  C   UNL     1       0.291  -1.867   0.000  0.00  0.00    +0.000 A 
ATOM      7  C   UNL     1      -0.224  -2.512   0.000  0.00  0.00    +0.000 C 
ATOM      8  C   UNL     1      -1.049  -2.512   0.000  0.00  0.00    +0.000 C 
ATOM      9  C   UNL     1      -1.563  -1.867   0.000  0.00  0.00    +0.000 A 
ATOM     10  C   UNL     1      -2.351  -2.110   0.000  0.00  0.00    +0.000 A 
ATOM     11  C   UNL     1      -2.956  -1.549   0.000  0.00  0.00    +0.000 A 
ATOM     12  C   UNL     1      -2.773  -0.744   0.000  0.00  0.00    +0.000 A 
ATOM     13  C   UNL     1      -1.984  -0.501   0.000  0.00  0.00    +0.000 A 
ATOM     14  C   UNL     1      -1.379  -1.062   0.000  0.00  0.00    +0.000 A 
ATOM     15  N   UNL     1      -0.636  -0.704   0.000  0.00  0.00    +0.000 N 
ENDROOT
BRANCH  15  16
ATOM     16  C   UNL     1      -0.636   0.121   0.000  0.00  0.00    +0.000 C 
BRANCH  16  20
ATOM     17  C   UNL     1       2.222   2.596   0.000  0.00  0.00    +0.000 A 
ATOM     18  C   UNL     1       0.793   2.596   0.000  0.00  0.00    +0.000 A 
ATOM     19  C   UNL     1       0.793   1.771   0.000  0.00  0.00    +0.000 A 
ATOM     20  C   UNL     1       0.078   0.533   0.000  0.00  0.00    +0.000 A 
ATOM     21  C   UNL     1       0.793   0.121   0.000  0.00  0.00    +0.000 A 
ATOM     22  C   UNL     1       1.507   1.358   0.000  0.00  0.00    +0.000 A 
ATOM     23  N   UNL     1       2.222   1.771   0.000  0.00  0.00    +0.000 NA
ATOM     24  N   UNL     1       2.936   3.008   0.000  0.00  0.00    +0.000 NA
ATOM     25  N   UNL     1       1.507   3.008   0.000  0.00  0.00    +0.000 NA
ATOM     26  N   UNL     1       0.078   3.008   0.000  0.00  0.00    +0.000 NA
ATOM     27  N   UNL     1       0.078   1.358   0.000  0.00  0.00    +0.000 NA
ATOM     28  N   UNL     1       1.507   0.533   0.000  0.00  0.00    +0.000 NA
ENDBRANCH  16  20
ENDBRANCH  15  16
TORSDOF 2
