REMARK  Name = PN5
REMARK  11 active torsions:
REMARK  status: ('A' for Active; 'I' for Inactive)
REMARK    1  A    between atoms: C_1  and  C_2
REMARK    2  A    between atoms: C_2  and  N_3
REMARK    3  A    between atoms: C_4  and  C_6
REMARK    4  A    between atoms: C_6  and  C_7
REMARK    5  A    between atoms: C_7  and  N_8
REMARK    6  A    between atoms: C_9  and  C_11
REMARK    7  A    between atoms: C_11  and  C_13
REMARK    8  A    between atoms: C_13  and  C_16
REMARK    9  A    between atoms: C_16  and  O_17
REMARK   10  A    between atoms: O_17  and  C_18
REMARK   11  A    between atoms: C_18  and  C_20
REMARK                            x       y       z     vdW  Elec       q    Type
REMARK                         _______ _______ _______ _____ _____    ______ ____
ROOT
ATOM      1  C   UNL     1      -0.195   0.203   0.000  0.00  0.00    +0.000 C 
ATOM      2  O   UNL     1      -0.195   1.028   0.000  0.00  0.00    +0.000 OA
ENDROOT
BRANCH   1   3
ATOM      3  C   UNL     1       0.520  -0.210   0.000  0.00  0.00    +0.000 C 
ATOM      4  C   UNL     1       0.107  -0.924   0.000  0.00  0.00    +0.000 C 
ATOM      5  C   UNL     1       0.932   0.505   0.000  0.00  0.00    +0.000 C 
BRANCH   3   6
ATOM      6  C   UNL     1       1.234  -0.622   0.000  0.00  0.00    +0.000 C 
BRANCH   6   7
ATOM      7  O   UNL     1       1.949  -0.210   0.000  0.00  0.00    +0.000 OA
BRANCH   7   8
ATOM      8  C   UNL     1       2.663  -0.622   0.000  0.00  0.00    +0.000 C 
ATOM      9  O   UNL     1       2.663  -1.447   0.000  0.00  0.00    +0.000 OA
BRANCH   8  10
ATOM     10  C   UNL     1       3.378  -0.210   0.000  0.00  0.00    +0.000 C 
ATOM     11  C   UNL     1       4.092   0.203   0.000  0.00  0.00    +0.000 C 
ATOM     12  C   UNL     1       2.965   0.505   0.000  0.00  0.00    +0.000 C 
ATOM     13  C   UNL     1       3.790  -0.924   0.000  0.00  0.00    +0.000 C 
ENDBRANCH   8  10
ENDBRANCH   7   8
ENDBRANCH   6   7
ENDBRANCH   3   6
ENDBRANCH   1   3
BRANCH   1  15
ATOM     14  N   UNL     1      -1.623   0.203   0.000  0.00  0.00    +0.000 NA
ATOM     15  C   UNL     1      -0.909  -0.210   0.000  0.00  0.00    +0.000 C 
ATOM     16  O   UNL     1      -0.909  -1.035   0.000  0.00  0.00    +0.000 OA
BRANCH  14  17
ATOM     17  C   UNL     1      -2.338  -0.210   0.000  0.00  0.00    +0.000 C 
BRANCH  17  18
ATOM     18  C   UNL     1      -3.052   0.203   0.000  0.00  0.00    +0.000 C 
BRANCH  18  20
ATOM     19  N   UNL     1      -4.481   0.203   0.000  0.00  0.00    +0.000 NA
ATOM     20  C   UNL     1      -3.767  -0.210   0.000  0.00  0.00    +0.000 C 
ATOM     21  O   UNL     1      -3.767  -1.035   0.000  0.00  0.00    +0.000 OA
BRANCH  19  22
ATOM     22  C   UNL     1      -5.196  -0.210   0.000  0.00  0.00    +0.000 C 
BRANCH  22  23
ATOM     23  C   UNL     1      -5.910   0.203   0.000  0.00  0.00    +0.000 C 
ATOM     24  S   UNL     1      -6.625  -0.210   0.000  0.00  0.00    +0.000 S 
ENDBRANCH  22  23
ENDBRANCH  19  22
ENDBRANCH  18  20
ENDBRANCH  17  18
ENDBRANCH  14  17
ENDBRANCH   1  15
TORSDOF 11
