REMARK  Name = PNB
REMARK  10 active torsions:
REMARK  status: ('A' for Active; 'I' for Inactive)
REMARK    1  A    between atoms: N_1  and  C_7
REMARK    2  A    between atoms: C_4  and  C_10
REMARK    3  A    between atoms: C_10  and  O_11
REMARK    4  A    between atoms: O_11  and  P_12
REMARK    5  A    between atoms: P_12  and  C_15
REMARK    6  A    between atoms: C_15  and  C_16
REMARK    7  A    between atoms: C_16  and  C_17
REMARK    8  A    between atoms: C_17  and  C_18
REMARK    9  A    between atoms: N_20  and  C_21
REMARK   10  A    between atoms: C_21  and  C_22
REMARK                            x       y       z     vdW  Elec       q    Type
REMARK                         _______ _______ _______ _____ _____    ______ ____
ROOT
ATOM      1  P   UNL     1      -0.284  -0.250   0.000  0.00  0.00    +0.000 P 
ATOM      2  O   UNL     1      -0.590  -1.016   0.000  0.00  0.00    +0.000 OA
ATOM      3  O   UNL     1       0.022   0.516   0.000  0.00  0.00    +0.000 OA
ENDROOT
BRANCH   1   4
ATOM      4  O   UNL     1      -1.050   0.056   0.000  0.00  0.00    +0.000 OA
BRANCH   4   5
ATOM      5  C   UNL     1      -1.698  -0.454   0.000  0.00  0.00    +0.000 C 
BRANCH   5   6
ATOM      6  C   UNL     1      -2.464  -0.148   0.000  0.00  0.00    +0.000 A 
ATOM      7  C   UNL     1      -3.112  -0.658   0.000  0.00  0.00    +0.000 A 
ATOM      8  C   UNL     1      -3.878  -0.352   0.000  0.00  0.00    +0.000 A 
ATOM      9  C   UNL     1      -3.996   0.464   0.000  0.00  0.00    +0.000 A 
ATOM     10  C   UNL     1      -3.348   0.975   0.000  0.00  0.00    +0.000 A 
ATOM     11  C   UNL     1      -2.582   0.668   0.000  0.00  0.00    +0.000 A 
BRANCH   9  12
ATOM     12  N   UNL     1      -4.762   0.770   0.000  0.00  0.00    +0.000 N 
ATOM     13  O   UNL     1      -4.880   1.587   0.000  0.00  0.00    +0.000 OA
ATOM     14  O   UNL     1      -5.410   0.260   0.000  0.00  0.00    +0.000 OA
ENDBRANCH   9  12
ENDBRANCH   5   6
ENDBRANCH   4   5
ENDBRANCH   1   4
BRANCH   1  15
ATOM     15  C   UNL     1       0.482  -0.556   0.000  0.00  0.00    +0.000 C 
BRANCH  15  16
ATOM     16  C   UNL     1       1.131  -0.046   0.000  0.00  0.00    +0.000 C 
BRANCH  16  17
ATOM     17  C   UNL     1       1.897  -0.352   0.000  0.00  0.00    +0.000 C 
BRANCH  17  18
ATOM     18  C   UNL     1       2.545   0.158   0.000  0.00  0.00    +0.000 C 
ATOM     19  O   UNL     1       2.427   0.975   0.000  0.00  0.00    +0.000 OA
ATOM     20  N   UNL     1       3.311  -0.148   0.000  0.00  0.00    +0.000 NA
BRANCH  20  21
ATOM     21  C   UNL     1       3.959   0.362   0.000  0.00  0.00    +0.000 C 
BRANCH  21  22
ATOM     22  C   UNL     1       4.725   0.056   0.000  0.00  0.00    +0.000 C 
ATOM     23  O   UNL     1       5.373   0.566   0.000  0.00  0.00    +0.000 OA
ATOM     24  O   UNL     1       4.843  -0.761   0.000  0.00  0.00    +0.000 OA
ENDBRANCH  21  22
ENDBRANCH  20  21
ENDBRANCH  17  18
ENDBRANCH  16  17
ENDBRANCH  15  16
ENDBRANCH   1  15
TORSDOF 10
