REMARK  Name = PNC
REMARK  9 active torsions:
REMARK  status: ('A' for Active; 'I' for Inactive)
REMARK    1  A    between atoms: C_1  and  C_7
REMARK    2  A    between atoms: C_4  and  N_15
REMARK    3  A    between atoms: C_7  and  N_17
REMARK    4  A    between atoms: C_8  and  C_9
REMARK    5  A    between atoms: C_8  and  C_14
REMARK    6  A    between atoms: C_9  and  C_10
REMARK    7  A    between atoms: C_10  and  C_11
REMARK    8  A    between atoms: C_12  and  C_13
REMARK    9  A    between atoms: C_12  and  N_16
REMARK                            x       y       z     vdW  Elec       q    Type
REMARK                         _______ _______ _______ _____ _____    ______ ____
ROOT
ATOM      1  C   UNL     1      -0.317   0.481   0.000  0.00  0.00    +0.000 C 
ATOM      2  N   UNL     1      -1.031   0.068   0.000  0.00  0.00    +0.000 NA
ATOM      3  O   UNL     1      -0.317   1.306   0.000  0.00  0.00    +0.000 OA
ENDROOT
BRANCH   2   4
ATOM      4  C   UNL     1      -1.746   0.481   0.000  0.00  0.00    +0.000 C 
BRANCH   4   5
ATOM      5  C   UNL     1      -2.460   0.068   0.000  0.00  0.00    +0.000 A 
ATOM      6  C   UNL     1      -2.460  -0.757   0.000  0.00  0.00    +0.000 A 
ATOM      7  C   UNL     1      -3.175  -1.169   0.000  0.00  0.00    +0.000 A 
ATOM      8  C   UNL     1      -3.889  -0.757   0.000  0.00  0.00    +0.000 A 
ATOM      9  C   UNL     1      -3.889   0.068   0.000  0.00  0.00    +0.000 A 
ATOM     10  C   UNL     1      -3.175   0.481   0.000  0.00  0.00    +0.000 A 
BRANCH   8  11
ATOM     11  N   UNL     1      -4.604  -1.169   0.000  0.00  0.00    +0.000 N 
ATOM     12  O   UNL     1      -5.318  -0.757   0.000  0.00  0.00    +0.000 OA
ATOM     13  O   UNL     1      -4.604  -1.994   0.000  0.00  0.00    +0.000 OA
ENDBRANCH   8  11
ENDBRANCH   4   5
ENDBRANCH   2   4
BRANCH   1  14
ATOM     14  C   UNL     1       0.398   0.068   0.000  0.00  0.00    +0.000 C 
BRANCH  14  15
ATOM     15  C   UNL     1       1.112   0.481   0.000  0.00  0.00    +0.000 C 
BRANCH  15  16
ATOM     16  C   UNL     1       1.827   0.068   0.000  0.00  0.00    +0.000 C 
BRANCH  16  17
ATOM     17  C   UNL     1       2.541   0.481   0.000  0.00  0.00    +0.000 C 
ATOM     18  N   UNL     1       3.256   0.068   0.000  0.00  0.00    +0.000 NA
ATOM     19  O   UNL     1       2.541   1.306   0.000  0.00  0.00    +0.000 OA
BRANCH  18  20
ATOM     20  C   UNL     1       3.970   0.481   0.000  0.00  0.00    +0.000 C 
BRANCH  20  21
ATOM     21  C   UNL     1       4.684   0.068   0.000  0.00  0.00    +0.000 C 
ATOM     22  O   UNL     1       5.399   0.481   0.000  0.00  0.00    +0.000 OA
ATOM     23  O   UNL     1       4.684  -0.757   0.000  0.00  0.00    +0.000 OA
ENDBRANCH  20  21
ENDBRANCH  18  20
ENDBRANCH  16  17
ENDBRANCH  15  16
ENDBRANCH  14  15
ENDBRANCH   1  14
TORSDOF 9
