REMARK  Name = PNP
REMARK  3 active torsions:
REMARK  status: ('A' for Active; 'I' for Inactive)
REMARK    1  A    between atoms: C_1  and  O_12
REMARK    2  A    between atoms: C_4  and  N_8
REMARK    3  A    between atoms: P_11  and  O_12
REMARK                            x       y       z     vdW  Elec       q    Type
REMARK                         _______ _______ _______ _____ _____    ______ ____
ROOT
ATOM      1  C   UNL     1       0.349  -0.321   0.000  0.00  0.00    +0.000 A 
ATOM      2  C   UNL     1       0.349  -1.146   0.000  0.00  0.00    +0.000 A 
ATOM      3  C   UNL     1      -0.365  -1.559   0.000  0.00  0.00    +0.000 A 
ATOM      4  C   UNL     1      -1.079  -1.146   0.000  0.00  0.00    +0.000 A 
ATOM      5  C   UNL     1      -1.079  -0.321   0.000  0.00  0.00    +0.000 A 
ATOM      6  C   UNL     1      -0.365   0.091   0.000  0.00  0.00    +0.000 A 
ENDROOT
BRANCH   4   7
ATOM      7  N   UNL     1      -1.794  -1.559   0.000  0.00  0.00    +0.000 N 
ATOM      8  O   UNL     1      -1.794  -2.384   0.000  0.00  0.00    +0.000 OA
ATOM      9  O   UNL     1      -2.508  -1.146   0.000  0.00  0.00    +0.000 OA
ENDBRANCH   4   7
BRANCH   1  10
ATOM     10  O   UNL     1       1.064   0.091   0.000  0.00  0.00    +0.000 OA
BRANCH  10  12
ATOM     11  C   UNL     1       1.064   1.741   0.000  0.00  0.00    +0.000 C 
ATOM     12  P   UNL     1       1.064   0.916   0.000  0.00  0.00    +0.000 P 
ATOM     13  O   UNL     1       0.239   0.916   0.000  0.00  0.00    +0.000 OA
ATOM     14  O   UNL     1       1.889   0.916   0.000  0.00  0.00    +0.000 OA
ENDBRANCH  10  12
ENDBRANCH   1  10
TORSDOF 3
