REMARK  Name = PO1
REMARK  5 active torsions:
REMARK  status: ('A' for Active; 'I' for Inactive)
REMARK    1  A    between atoms: C_1  and  O_7
REMARK    2  A    between atoms: C_2  and  O_12
REMARK    3  A    between atoms: S_4  and  O_7
REMARK    4  A    between atoms: C_23  and  O_26
REMARK    5  A    between atoms: O_26  and  S_27
REMARK                            x       y       z     vdW  Elec       q    Type
REMARK                         _______ _______ _______ _____ _____    ______ ____
ROOT
ATOM      1  C   UNL     1       2.525  -0.352   0.000  0.00  0.00    +0.000 A 
ATOM      2  C   UNL     1       2.244   0.424   0.000  0.00  0.00    +0.000 A 
ATOM      3  C   UNL     1       1.432   0.569   0.000  0.00  0.00    +0.000 A 
ATOM      4  C   UNL     1       0.900  -0.062   0.000  0.00  0.00    +0.000 A 
ATOM      5  C   UNL     1       1.181  -0.838   0.000  0.00  0.00    +0.000 A 
ATOM      6  C   UNL     1       1.993  -0.983   0.000  0.00  0.00    +0.000 A 
ATOM      7  C   UNL     1       0.088   0.083   0.000  0.00  0.00    +0.000 C 
ATOM      8  C   UNL     1      -0.444  -0.547   0.000  0.00  0.00    +0.000 C 
ATOM      9  C   UNL     1      -0.163  -1.323   0.000  0.00  0.00    +0.000 C 
ATOM     10  C   UNL     1       0.649  -1.468   0.000  0.00  0.00    +0.000 C 
ATOM     11  C   UNL     1      -0.192   0.859   0.000  0.00  0.00    +0.000 C 
ATOM     12  C   UNL     1      -1.004   1.004   0.000  0.00  0.00    +0.000 C 
ATOM     13  C   UNL     1      -1.536   0.374   0.000  0.00  0.00    +0.000 C 
ATOM     14  C   UNL     1      -1.256  -0.402   0.000  0.00  0.00    +0.000 C 
ATOM     15  C   UNL     1      -1.896   1.116   0.000  0.00  0.00    +0.000 C 
ATOM     16  C   UNL     1      -2.361   0.347   0.000  0.00  0.00    +0.000 C 
ATOM     17  C   UNL     1      -2.590  -0.446   0.000  0.00  0.00    +0.000 C 
ATOM     18  C   UNL     1      -1.907  -0.908   0.000  0.00  0.00    +0.000 C 
ENDROOT
BRANCH   2  19
ATOM     19  O   UNL     1       2.776   1.054   0.000  0.00  0.00    +0.000 OA
ATOM     20  C   UNL     1       2.496   1.830   0.000  0.00  0.00    +0.000 C 
ENDBRANCH   2  19
BRANCH   1  21
ATOM     21  O   UNL     1       3.337  -0.497   0.000  0.00  0.00    +0.000 OA
BRANCH  21  23
ATOM     22  O   UNL     1       3.897  -2.049   0.000  0.00  0.00    +0.000 OA
ATOM     23  S   UNL     1       3.617  -1.273   0.000  0.00  0.00    +0.000 S 
ATOM     24  O   UNL     1       4.393  -0.993   0.000  0.00  0.00    +0.000 OA
ATOM     25  N   UNL     1       2.841  -1.554   0.000  0.00  0.00    +0.000 NA
ENDBRANCH  21  23
ENDBRANCH   1  21
BRANCH  16  26
ATOM     26  O   UNL     1      -2.867   0.998   0.000  0.00  0.00    +0.000 OA
BRANCH  26  27
ATOM     27  S   UNL     1      -3.684   0.885   0.000  0.00  0.00    +0.000 S 
ATOM     28  O   UNL     1      -4.501   0.773   0.000  0.00  0.00    +0.000 OA
ATOM     29  O   UNL     1      -3.797   1.703   0.000  0.00  0.00    +0.000 OA
ATOM     30  N   UNL     1      -3.571   0.068   0.000  0.00  0.00    +0.000 NA
ENDBRANCH  26  27
ENDBRANCH  16  26
TORSDOF 5
