REMARK  Name = POF
REMARK  4 active torsions:
REMARK  status: ('A' for Active; 'I' for Inactive)
REMARK    1  A    between atoms: O_2  and  C_5
REMARK    2  A    between atoms: O_2  and  S_11
REMARK    3  A    between atoms: N_24  and  C_27
REMARK    4  A    between atoms: C_27  and  C_28
REMARK                            x       y       z     vdW  Elec       q    Type
REMARK                         _______ _______ _______ _____ _____    ______ ____
ROOT
ATOM      1  O   UNL     1      -2.570   1.205   0.000  0.00  0.00    +0.000 OA
ATOM      2  C   UNL     1       3.101   0.114   0.000  0.00  0.00    +0.000 A 
ATOM      3  C   UNL     1       2.561   0.737   0.000  0.00  0.00    +0.000 A 
ATOM      4  C   UNL     1       1.751   0.581   0.000  0.00  0.00    +0.000 A 
ATOM      5  C   UNL     1       1.481  -0.198   0.000  0.00  0.00    +0.000 A 
ATOM      6  C   UNL     1       2.021  -0.822   0.000  0.00  0.00    +0.000 A 
ATOM      7  C   UNL     1       2.831  -0.666   0.000  0.00  0.00    +0.000 A 
ATOM      8  C   UNL     1       1.211   1.205   0.000  0.00  0.00    +0.000 C 
ATOM      9  C   UNL     1       0.401   1.049   0.000  0.00  0.00    +0.000 C 
ATOM     10  C   UNL     1       0.131   0.270   0.000  0.00  0.00    +0.000 C 
ATOM     11  C   UNL     1       0.671  -0.354   0.000  0.00  0.00    +0.000 C 
ATOM     12  C   UNL     1      -0.679   0.114   0.000  0.00  0.00    +0.000 C 
ATOM     13  C   UNL     1      -0.950  -0.666   0.000  0.00  0.00    +0.000 C 
ATOM     14  C   UNL     1      -0.409  -1.290   0.000  0.00  0.00    +0.000 C 
ATOM     15  C   UNL     1       0.401  -1.134   0.000  0.00  0.00    +0.000 C 
ATOM     16  C   UNL     1      -1.220  -1.445   0.000  0.00  0.00    +0.000 C 
ATOM     17  C   UNL     1      -1.220   0.737   0.000  0.00  0.00    +0.000 C 
ATOM     18  C   UNL     1      -2.030   0.581   0.000  0.00  0.00    +0.000 C 
ATOM     19  N   UNL     1      -2.300  -0.198   0.000  0.00  0.00    +0.000 N 
ATOM     20  C   UNL     1      -1.760  -0.822   0.000  0.00  0.00    +0.000 C 
ATOM     21  O   UNL     1      -2.030  -1.601   0.000  0.00  0.00    +0.000 OA
ENDROOT
BRANCH   2  22
ATOM     22  O   UNL     1       3.911   0.270   0.000  0.00  0.00    +0.000 OA
BRANCH  22  26
ATOM     23  O   UNL     1       4.991  -0.978   0.000  0.00  0.00    +0.000 OA
ATOM     24  O   UNL     1       5.075   0.186   0.000  0.00  0.00    +0.000 OA
ATOM     25  N   UNL     1       3.828  -0.894   0.000  0.00  0.00    +0.000 NA
ATOM     26  S   UNL     1       4.451  -0.354   0.000  0.00  0.00    +0.000 S 
ENDBRANCH  22  26
ENDBRANCH   2  22
BRANCH  19  27
ATOM     27  C   UNL     1      -3.110  -0.354   0.000  0.00  0.00    +0.000 C 
BRANCH  27  28
ATOM     28  C   UNL     1      -3.650   0.270   0.000  0.00  0.00    +0.000 A 
ATOM     29  C   UNL     1      -4.460   0.114   0.000  0.00  0.00    +0.000 A 
ATOM     30  C   UNL     1      -5.000   0.737   0.000  0.00  0.00    +0.000 A 
ATOM     31  C   UNL     1      -4.730   1.517   0.000  0.00  0.00    +0.000 A 
ATOM     32  N   UNL     1      -3.920   1.673   0.000  0.00  0.00    +0.000 NA
ATOM     33  C   UNL     1      -3.380   1.049   0.000  0.00  0.00    +0.000 A 
ENDBRANCH  27  28
ENDBRANCH  19  27
TORSDOF 4
