REMARK  Name = POT
REMARK  6 active torsions:
REMARK  status: ('A' for Active; 'I' for Inactive)
REMARK    1  A    between atoms: P_1  and  O_4
REMARK    2  A    between atoms: O_4  and  C_5
REMARK    3  A    between atoms: C_5  and  C_6
REMARK    4  A    between atoms: C_5  and  C_8
REMARK    5  A    between atoms: C_8  and  O_9
REMARK    6  A    between atoms: O_9  and  C_14
REMARK                            x       y       z     vdW  Elec       q    Type
REMARK                         _______ _______ _______ _____ _____    ______ ____
ROOT
ATOM      1  C   UNL     1       1.899  -0.315   0.000  0.00  0.00    +0.000 C 
ENDROOT
BRANCH   1   2
ATOM      2  C   UNL     1       1.899   0.510   0.000  0.00  0.00    +0.000 C 
ATOM      3  C   UNL     1       2.614   0.923   0.000  0.00  0.00    +0.000 C 
ENDBRANCH   1   2
BRANCH   1   4
ATOM      4  O   UNL     1       1.185  -0.728   0.000  0.00  0.00    +0.000 OA
BRANCH   4   5
ATOM      5  P   UNL     1       0.470  -0.315   0.000  0.00  0.00    +0.000 P 
ATOM      6  C   UNL     1      -0.244   0.098   0.000  0.00  0.00    +0.000 C 
ATOM      7  O   UNL     1       0.058  -1.030   0.000  0.00  0.00    +0.000 OA
ATOM      8 CL   UNL     1       0.883   0.399   0.000  0.00  0.00    +0.000 Cl
ENDBRANCH   4   5
ENDBRANCH   1   4
BRANCH   1   9
ATOM      9  C   UNL     1       2.614  -0.728   0.000  0.00  0.00    +0.000 C 
BRANCH   9  10
ATOM     10  O   UNL     1       3.329  -0.315   0.000  0.00  0.00    +0.000 OA
BRANCH  10  15
ATOM     11  C   UNL     1       4.758  -1.965   0.000  0.00  0.00    +0.000 A 
ATOM     12  C   UNL     1       5.472  -1.553   0.000  0.00  0.00    +0.000 A 
ATOM     13  C   UNL     1       5.472  -0.728   0.000  0.00  0.00    +0.000 A 
ATOM     14  C   UNL     1       4.758  -0.315   0.000  0.00  0.00    +0.000 A 
ATOM     15  C   UNL     1       4.043  -0.728   0.000  0.00  0.00    +0.000 A 
ATOM     16  C   UNL     1       4.043  -1.553   0.000  0.00  0.00    +0.000 A 
ENDBRANCH  10  15
ENDBRANCH   9  10
ENDBRANCH   1   9
TORSDOF 6
