REMARK  Name = PP1
REMARK  2 active torsions:
REMARK  status: ('A' for Active; 'I' for Inactive)
REMARK    1  A    between atoms: N_1  and  C_18
REMARK    2  A    between atoms: C_9  and  C_11
REMARK                            x       y       z     vdW  Elec       q    Type
REMARK                         _______ _______ _______ _____ _____    ______ ____
ROOT
ATOM      1  N   UNL     1       0.126  -1.188   0.000  0.00  0.00    +0.000 N 
ATOM      2  C   UNL     1       2.340  -0.933   0.000  0.00  0.00    +0.000 A 
ATOM      3  N   UNL     1       1.625  -1.345   0.000  0.00  0.00    +0.000 NA
ATOM      4  C   UNL     1       0.911  -0.933   0.000  0.00  0.00    +0.000 A 
ATOM      5  C   UNL     1       0.911  -0.108   0.000  0.00  0.00    +0.000 A 
ATOM      6  C   UNL     1       1.625   0.305   0.000  0.00  0.00    +0.000 A 
ATOM      7  N   UNL     1       2.340  -0.108   0.000  0.00  0.00    +0.000 NA
ATOM      8  N   UNL     1      -0.358  -0.520   0.000  0.00  0.00    +0.000 NA
ATOM      9  C   UNL     1       0.126   0.147   0.000  0.00  0.00    +0.000 A 
ATOM     10  N   UNL     1       1.625   1.130   0.000  0.00  0.00    +0.000 NA
ENDROOT
BRANCH   9  11
ATOM     11  C   UNL     1      -0.129   0.932   0.000  0.00  0.00    +0.000 A 
ATOM     12  C   UNL     1      -0.935   1.103   0.000  0.00  0.00    +0.000 A 
ATOM     13  C   UNL     1      -1.190   1.888   0.000  0.00  0.00    +0.000 A 
ATOM     14  C   UNL     1      -0.638   2.501   0.000  0.00  0.00    +0.000 A 
ATOM     15  C   UNL     1       0.169   2.330   0.000  0.00  0.00    +0.000 A 
ATOM     16  C   UNL     1       0.423   1.545   0.000  0.00  0.00    +0.000 A 
ATOM     17  C   UNL     1      -0.893   3.286   0.000  0.00  0.00    +0.000 C 
ENDBRANCH   9  11
BRANCH   1  18
ATOM     18  C   UNL     1      -0.129  -1.972   0.000  0.00  0.00    +0.000 C 
ATOM     19  C   UNL     1      -0.383  -2.757   0.000  0.00  0.00    +0.000 C 
ATOM     20  C   UNL     1      -0.913  -1.717   0.000  0.00  0.00    +0.000 C 
ATOM     21  C   UNL     1       0.656  -2.227   0.000  0.00  0.00    +0.000 C 
ENDBRANCH   1  18
TORSDOF 2
