REMARK  Name = PP2
REMARK  2 active torsions:
REMARK  status: ('A' for Active; 'I' for Inactive)
REMARK    1  A    between atoms: C_7  and  C_10
REMARK    2  A    between atoms: N_9  and  C_16
REMARK                            x       y       z     vdW  Elec       q    Type
REMARK                         _______ _______ _______ _____ _____    ______ ____
ROOT
ATOM      1  C   UNL     1       1.172   0.798   0.000  0.00  0.00    +0.000 A 
ATOM      2  N   UNL     1       1.887   1.211   0.000  0.00  0.00    +0.000 NA
ATOM      3  C   UNL     1       2.601   0.798   0.000  0.00  0.00    +0.000 A 
ATOM      4  N   UNL     1       2.601  -0.027   0.000  0.00  0.00    +0.000 NA
ATOM      5  C   UNL     1       1.887  -0.439   0.000  0.00  0.00    +0.000 A 
ATOM      6  C   UNL     1       1.172  -0.027   0.000  0.00  0.00    +0.000 A 
ATOM      7  C   UNL     1       0.388  -0.282   0.000  0.00  0.00    +0.000 A 
ATOM      8  N   UNL     1      -0.097   0.386   0.000  0.00  0.00    +0.000 NA
ATOM      9  N   UNL     1       0.388   1.053   0.000  0.00  0.00    +0.000 N 
ATOM     10  N   UNL     1       1.887  -1.264   0.000  0.00  0.00    +0.000 NA
ENDROOT
BRANCH   7  11
ATOM     11  C   UNL     1       0.133  -1.066   0.000  0.00  0.00    +0.000 A 
ATOM     12  C   UNL     1       0.685  -1.679   0.000  0.00  0.00    +0.000 A 
ATOM     13  C   UNL     1       0.430  -2.464   0.000  0.00  0.00    +0.000 A 
ATOM     14  C   UNL     1      -0.377  -2.635   0.000  0.00  0.00    +0.000 A 
ATOM     15  C   UNL     1      -0.929  -2.022   0.000  0.00  0.00    +0.000 A 
ATOM     16  C   UNL     1      -0.674  -1.238   0.000  0.00  0.00    +0.000 A 
ATOM     17 CL   UNL     1      -0.632  -3.420   0.000  0.00  0.00    +0.000 Cl
ENDBRANCH   7  11
BRANCH   9  18
ATOM     18  C   UNL     1       0.133   1.838   0.000  0.00  0.00    +0.000 C 
ATOM     19  C   UNL     1      -0.122   2.623   0.000  0.00  0.00    +0.000 C 
ATOM     20  C   UNL     1      -0.652   1.583   0.000  0.00  0.00    +0.000 C 
ATOM     21  C   UNL     1       0.917   2.093   0.000  0.00  0.00    +0.000 C 
ENDBRANCH   9  18
TORSDOF 2
