REMARK  Name = PPB
REMARK  9 active torsions:
REMARK  status: ('A' for Active; 'I' for Inactive)
REMARK    1  A    between atoms: C_1  and  C_2
REMARK    2  A    between atoms: C_1  and  C_5
REMARK    3  A    between atoms: N_3  and  C_5
REMARK    4  A    between atoms: B_4  and  C_5
REMARK    5  A    between atoms: C_9  and  C_10
REMARK    6  A    between atoms: C_15  and  C_17
REMARK    7  A    between atoms: C_17  and  C_25
REMARK    8  A    between atoms: C_19  and  C_23
REMARK    9  A    between atoms: C_25  and  C_31
REMARK                            x       y       z     vdW  Elec       q    Type
REMARK                         _______ _______ _______ _____ _____    ______ ____
ROOT
ATOM      1  N   UNL     1       0.992   0.651   0.000  0.00  0.00    +0.000 N 
ATOM      2  C   UNL     1       0.238   0.986   0.000  0.00  0.00    +0.000 C 
ATOM      3  C   UNL     1       0.325   1.807   0.000  0.00  0.00    +0.000 C 
ATOM      4  C   UNL     1       1.131   1.978   0.000  0.00  0.00    +0.000 C 
ATOM      5  C   UNL     1       1.544   1.264   0.000  0.00  0.00    +0.000 C 
ATOM      6  C   UNL     1       1.163  -0.156   0.000  0.00  0.00    +0.000 C 
ATOM      7  O   UNL     1       0.550  -0.708   0.000  0.00  0.00    +0.000 OA
ENDROOT
BRANCH   2   9
ATOM      8  N   UNL     1      -1.191   0.986   0.000  0.00  0.00    +0.000 NA
ATOM      9  C   UNL     1      -0.476   0.574   0.000  0.00  0.00    +0.000 C 
ATOM     10  O   UNL     1      -0.476  -0.251   0.000  0.00  0.00    +0.000 OA
BRANCH   8  11
ATOM     11  C   UNL     1      -1.905   0.574   0.000  0.00  0.00    +0.000 C 
BRANCH  11  12
ATOM     12  B   UNL     1      -1.905  -0.251   0.000  0.00  0.00    +0.000 B 
ATOM     13  O   UNL     1      -1.191  -0.664   0.000  0.00  0.00    +0.000 OA
ATOM     14  O   UNL     1      -2.620  -0.664   0.000  0.00  0.00    +0.000 OA
ENDBRANCH  11  12
BRANCH  11  15
ATOM     15  C   UNL     1      -2.620   0.986   0.000  0.00  0.00    +0.000 C 
BRANCH  15  16
ATOM     16  C   UNL     1      -3.334   0.574   0.000  0.00  0.00    +0.000 A 
ATOM     17  C   UNL     1      -3.334  -0.251   0.000  0.00  0.00    +0.000 A 
ATOM     18  C   UNL     1      -4.049  -0.664   0.000  0.00  0.00    +0.000 A 
ATOM     19  C   UNL     1      -4.049   0.986   0.000  0.00  0.00    +0.000 A 
ATOM     20  C   UNL     1      -4.763   0.574   0.000  0.00  0.00    +0.000 A 
ATOM     21  C   UNL     1      -4.763  -0.251   0.000  0.00  0.00    +0.000 A 
BRANCH  18  22
ATOM     22  C   UNL     1      -4.049  -1.489   0.000  0.00  0.00    +0.000 C 
ATOM     23  N   UNL     1      -4.049  -2.314   0.000  0.00  0.00    +0.000 NA
ENDBRANCH  18  22
ENDBRANCH  15  16
ENDBRANCH  11  15
ENDBRANCH   8  11
ENDBRANCH   2   9
BRANCH   6  24
ATOM     24  C   UNL     1       1.948  -0.411   0.000  0.00  0.00    +0.000 C 
ATOM     25  N   UNL     1       2.561   0.141   0.000  0.00  0.00    +0.000 NA
BRANCH  24  26
ATOM     26  C   UNL     1       2.120  -1.218   0.000  0.00  0.00    +0.000 C 
BRANCH  26  31
ATOM     27  C   UNL     1       4.302  -1.176   0.000  0.00  0.00    +0.000 A 
ATOM     28  C   UNL     1       4.473  -1.983   0.000  0.00  0.00    +0.000 A 
ATOM     29  C   UNL     1       3.860  -2.535   0.000  0.00  0.00    +0.000 A 
ATOM     30  C   UNL     1       3.076  -2.280   0.000  0.00  0.00    +0.000 A 
ATOM     31  C   UNL     1       2.904  -1.473   0.000  0.00  0.00    +0.000 A 
ATOM     32  C   UNL     1       3.517  -0.921   0.000  0.00  0.00    +0.000 A 
ENDBRANCH  26  31
ENDBRANCH  24  26
ENDBRANCH   6  24
TORSDOF 9
