REMARK  Name = PPL
REMARK  2 active torsions:
REMARK  status: ('A' for Active; 'I' for Inactive)
REMARK    1  A    between atoms: C_2  and  C_7
REMARK    2  A    between atoms: N_9  and  C_10
REMARK                            x       y       z     vdW  Elec       q    Type
REMARK                         _______ _______ _______ _____ _____    ______ ____
ROOT
ATOM      1  C   UNL     1       0.442   0.128   0.000  0.00  0.00    +0.000 C 
ATOM      2  O   UNL     1       1.156   0.541   0.000  0.00  0.00    +0.000 OA
ATOM      3  N   UNL     1       0.442  -0.697   0.000  0.00  0.00    +0.000 NA
ENDROOT
BRANCH   1   5
ATOM      4  N   UNL     1      -0.273   1.366   0.000  0.00  0.00    +0.000 NA
ATOM      5  C   UNL     1      -0.273   0.541   0.000  0.00  0.00    +0.000 C 
ATOM      6  C   UNL     1      -0.988   0.128   0.000  0.00  0.00    +0.000 C 
ATOM      7  C   UNL     1      -1.702   0.541   0.000  0.00  0.00    +0.000 C 
ATOM      8  C   UNL     1      -1.702   1.366   0.000  0.00  0.00    +0.000 C 
ATOM      9  C   UNL     1      -0.988   1.778   0.000  0.00  0.00    +0.000 C 
ENDBRANCH   1   5
BRANCH   3  10
ATOM     10  C   UNL     1       1.156  -1.109   0.000  0.00  0.00    +0.000 C 
ATOM     11  C   UNL     1       1.870  -1.522   0.000  0.00  0.00    +0.000 C 
ATOM     12  C   UNL     1       0.743  -1.824   0.000  0.00  0.00    +0.000 C 
ATOM     13  C   UNL     1       1.568  -0.395   0.000  0.00  0.00    +0.000 C 
ENDBRANCH   3  10
TORSDOF 2
