REMARK  Name = PPT
REMARK  3 active torsions:
REMARK  status: ('A' for Active; 'I' for Inactive)
REMARK    1  A    between atoms: C_1  and  C_2
REMARK    2  A    between atoms: C_1  and  C_5
REMARK    3  A    between atoms: C_5  and  C_6
REMARK                            x       y       z     vdW  Elec       q    Type
REMARK                         _______ _______ _______ _____ _____    ______ ____
ROOT
ATOM      1  C   UNL     1       0.200  -0.102   0.000  0.00  0.00    +0.000 A 
ATOM      2  C   UNL     1       0.200  -0.927   0.000  0.00  0.00    +0.000 A 
ATOM      3  C   UNL     1      -0.515   0.311   0.000  0.00  0.00    +0.000 A 
ATOM      4  C   UNL     1      -0.515  -1.339   0.000  0.00  0.00    +0.000 A 
ATOM      5  C   UNL     1      -1.229  -0.102   0.000  0.00  0.00    +0.000 A 
ATOM      6  C   UNL     1      -1.229  -0.927   0.000  0.00  0.00    +0.000 A 
ATOM      7  C   UNL     1      -1.944  -1.339   0.000  0.00  0.00    +0.000 C 
ENDROOT
BRANCH   1   8
ATOM      8  C   UNL     1       0.914   0.311   0.000  0.00  0.00    +0.000 C 
BRANCH   8   9
ATOM      9  C   UNL     1       0.914   1.136   0.000  0.00  0.00    +0.000 C 
BRANCH   9  10
ATOM     10  C   UNL     1       1.629   1.548   0.000  0.00  0.00    +0.000 C 
ATOM     11  O   UNL     1       1.629   2.373   0.000  0.00  0.00    +0.000 OA
ATOM     12  O   UNL     1       2.343   1.136   0.000  0.00  0.00    +0.000 OA
ENDBRANCH   9  10
ENDBRANCH   8   9
ENDBRANCH   1   8
TORSDOF 3
