REMARK  Name = PPX
REMARK  8 active torsions:
REMARK  status: ('A' for Active; 'I' for Inactive)
REMARK    1  A    between atoms: C_2  and  C_3
REMARK    2  A    between atoms: C_2  and  C_10
REMARK    3  A    between atoms: C_3  and  C_4
REMARK    4  A    between atoms: C_14  and  C_17
REMARK    5  A    between atoms: N_19  and  C_20
REMARK    6  A    between atoms: C_20  and  C_21
REMARK    7  A    between atoms: C_21  and  N_22
REMARK    8  A    between atoms: N_22  and  C_23
REMARK                            x       y       z     vdW  Elec       q    Type
REMARK                         _______ _______ _______ _____ _____    ______ ____
ROOT
ATOM      1  C   UNL     1      -0.973   0.025   0.000  0.00  0.00    +0.000 C 
ATOM      2  O   UNL     1      -0.188   0.280   0.000  0.00  0.00    +0.000 OA
ATOM      3  N   UNL     1      -1.586   0.577   0.000  0.00  0.00    +0.000 N 
ATOM      4  C   UNL     1      -2.393   0.406   0.000  0.00  0.00    +0.000 C 
ATOM      5  C   UNL     1      -1.499   1.398   0.000  0.00  0.00    +0.000 C 
ATOM      6  C   UNL     1      -2.253   1.734   0.000  0.00  0.00    +0.000 C 
ATOM      7  C   UNL     1      -2.805   1.120   0.000  0.00  0.00    +0.000 C 
ENDROOT
BRANCH   5   8
ATOM      8  C   UNL     1      -0.785   1.810   0.000  0.00  0.00    +0.000 C 
ATOM      9  O   UNL     1      -0.785   2.635   0.000  0.00  0.00    +0.000 OA
ATOM     10  N   UNL     1      -0.070   1.398   0.000  0.00  0.00    +0.000 NA
BRANCH  10  11
ATOM     11  C   UNL     1       0.644   1.810   0.000  0.00  0.00    +0.000 C 
BRANCH  11  12
ATOM     12  C   UNL     1       1.359   1.398   0.000  0.00  0.00    +0.000 C 
BRANCH  12  13
ATOM     13  N   UNL     1       2.073   1.810   0.000  0.00  0.00    +0.000 NA
BRANCH  13  14
ATOM     14  C   UNL     1       2.788   1.398   0.000  0.00  0.00    +0.000 A 
ATOM     15  C   UNL     1       3.502   1.810   0.000  0.00  0.00    +0.000 A 
ATOM     16  C   UNL     1       4.216   1.398   0.000  0.00  0.00    +0.000 A 
ATOM     17  N   UNL     1       4.216   0.573   0.000  0.00  0.00    +0.000 NA
ATOM     18  C   UNL     1       3.502   0.160   0.000  0.00  0.00    +0.000 A 
ATOM     19  C   UNL     1       2.788   0.573   0.000  0.00  0.00    +0.000 A 
ENDBRANCH  13  14
ENDBRANCH  12  13
ENDBRANCH  11  12
ENDBRANCH  10  11
ENDBRANCH   5   8
BRANCH   1  21
ATOM     20  N   UNL     1      -1.929  -1.036   0.000  0.00  0.00    +0.000 NA
ATOM     21  C   UNL     1      -1.144  -0.782   0.000  0.00  0.00    +0.000 C 
BRANCH  21  22
ATOM     22  C   UNL     1      -0.531  -1.334   0.000  0.00  0.00    +0.000 C 
BRANCH  22  23
ATOM     23  C   UNL     1      -0.703  -2.141   0.000  0.00  0.00    +0.000 A 
ATOM     24  C   UNL     1      -0.089  -2.693   0.000  0.00  0.00    +0.000 A 
ATOM     25  C   UNL     1      -1.487  -2.396   0.000  0.00  0.00    +0.000 A 
ATOM     26  C   UNL     1      -0.261  -3.500   0.000  0.00  0.00    +0.000 A 
ATOM     27  C   UNL     1      -1.659  -3.203   0.000  0.00  0.00    +0.000 A 
ATOM     28  C   UNL     1      -1.046  -3.755   0.000  0.00  0.00    +0.000 A 
ENDBRANCH  22  23
ENDBRANCH  21  22
ENDBRANCH   1  21
TORSDOF 8
