REMARK  Name = PQA
REMARK  5 active torsions:
REMARK  status: ('A' for Active; 'I' for Inactive)
REMARK    1  A    between atoms: C_3  and  C_14
REMARK    2  A    between atoms: N_6  and  C_7
REMARK    3  A    between atoms: C_14  and  C_16
REMARK    4  A    between atoms: C_20  and  O_21
REMARK    5  A    between atoms: O_21  and  C_22
REMARK                            x       y       z     vdW  Elec       q    Type
REMARK                         _______ _______ _______ _____ _____    ______ ____
ROOT
ATOM      1  C   UNL     1      -0.535  -0.763   0.000  0.00  0.00    +0.000 C 
ATOM      2  O   UNL     1       0.078  -1.315   0.000  0.00  0.00    +0.000 OA
ENDROOT
BRANCH   1   5
ATOM      3  N   UNL     1      -1.987   0.292   0.000  0.00  0.00    +0.000 NA
ATOM      4  C   UNL     1      -1.987  -0.533   0.000  0.00  0.00    +0.000 A 
ATOM      5  C   UNL     1      -1.320  -1.018   0.000  0.00  0.00    +0.000 A 
ATOM      6  C   UNL     1      -1.575  -1.802   0.000  0.00  0.00    +0.000 A 
ATOM      7  N   UNL     1      -2.400  -1.802   0.000  0.00  0.00    +0.000 NA
ATOM      8  N   UNL     1      -2.655  -1.018   0.000  0.00  0.00    +0.000 N 
BRANCH   8   9
ATOM      9  C   UNL     1      -3.439  -0.763   0.000  0.00  0.00    +0.000 A 
ATOM     10  C   UNL     1      -4.052  -1.315   0.000  0.00  0.00    +0.000 A 
ATOM     11  C   UNL     1      -4.837  -1.060   0.000  0.00  0.00    +0.000 A 
ATOM     12  C   UNL     1      -5.008  -0.253   0.000  0.00  0.00    +0.000 A 
ATOM     13  F   UNL     1      -5.793   0.002   0.000  0.00  0.00    +0.000 F 
ATOM     14  C   UNL     1      -4.395   0.299   0.000  0.00  0.00    +0.000 A 
ATOM     15  C   UNL     1      -3.611   0.044   0.000  0.00  0.00    +0.000 A 
ENDBRANCH   8   9
ENDBRANCH   1   5
BRANCH   1  16
ATOM     16  C   UNL     1      -0.364   0.044   0.000  0.00  0.00    +0.000 A 
ATOM     17  C   UNL     1      -0.977   0.596   0.000  0.00  0.00    +0.000 A 
ATOM     18  C   UNL     1      -0.805   1.403   0.000  0.00  0.00    +0.000 A 
ATOM     19  C   UNL     1      -0.021   1.658   0.000  0.00  0.00    +0.000 A 
ATOM     20  C   UNL     1       0.593   1.106   0.000  0.00  0.00    +0.000 A 
ATOM     21  C   UNL     1       0.421   0.299   0.000  0.00  0.00    +0.000 A 
BRANCH  20  22
ATOM     22  O   UNL     1       1.377   1.361   0.000  0.00  0.00    +0.000 OA
BRANCH  22  23
ATOM     23  C   UNL     1       1.990   0.809   0.000  0.00  0.00    +0.000 C 
ATOM     24  C   UNL     1       2.775   1.064   0.000  0.00  0.00    +0.000 C 
ATOM     25  C   UNL     1       3.388   0.512   0.000  0.00  0.00    +0.000 C 
ATOM     26  N   UNL     1       3.216  -0.295   0.000  0.00  0.00    +0.000 NA
ATOM     27  C   UNL     1       2.432  -0.550   0.000  0.00  0.00    +0.000 C 
ATOM     28  C   UNL     1       1.819   0.002   0.000  0.00  0.00    +0.000 C 
ENDBRANCH  22  23
ENDBRANCH  20  22
ENDBRANCH   1  16
TORSDOF 5
