REMARK  Name = PQB
REMARK  7 active torsions:
REMARK  status: ('A' for Active; 'I' for Inactive)
REMARK    1  A    between atoms: C_3  and  C_14
REMARK    2  A    between atoms: N_6  and  C_7
REMARK    3  A    between atoms: C_14  and  C_16
REMARK    4  A    between atoms: C_20  and  O_21
REMARK    5  A    between atoms: O_21  and  C_22
REMARK    6  A    between atoms: C_22  and  C_23
REMARK    7  A    between atoms: C_23  and  C_25
REMARK                            x       y       z     vdW  Elec       q    Type
REMARK                         _______ _______ _______ _____ _____    ______ ____
ROOT
ATOM      1  C   UNL     1       0.016  -0.928   0.000  0.00  0.00    +0.000 C 
ATOM      2  O   UNL     1       0.731  -1.341   0.000  0.00  0.00    +0.000 OA
ENDROOT
BRANCH   1   5
ATOM      3  N   UNL     1      -1.623  -0.198   0.000  0.00  0.00    +0.000 NA
ATOM      4  C   UNL     1      -1.452  -1.005   0.000  0.00  0.00    +0.000 A 
ATOM      5  C   UNL     1      -0.698  -1.341   0.000  0.00  0.00    +0.000 A 
ATOM      6  C   UNL     1      -0.784  -2.161   0.000  0.00  0.00    +0.000 A 
ATOM      7  N   UNL     1      -1.591  -2.333   0.000  0.00  0.00    +0.000 NA
ATOM      8  N   UNL     1      -2.004  -1.618   0.000  0.00  0.00    +0.000 N 
BRANCH   8   9
ATOM      9  C   UNL     1      -2.824  -1.532   0.000  0.00  0.00    +0.000 A 
ATOM     10  C   UNL     1      -3.309  -2.200   0.000  0.00  0.00    +0.000 A 
ATOM     11  C   UNL     1      -4.130  -2.113   0.000  0.00  0.00    +0.000 A 
ATOM     12  C   UNL     1      -4.465  -1.360   0.000  0.00  0.00    +0.000 A 
ATOM     13  F   UNL     1      -5.286  -1.273   0.000  0.00  0.00    +0.000 F 
ATOM     14  C   UNL     1      -3.980  -0.692   0.000  0.00  0.00    +0.000 A 
ATOM     15  C   UNL     1      -3.160  -0.778   0.000  0.00  0.00    +0.000 A 
ENDBRANCH   8   9
ENDBRANCH   1   5
BRANCH   1  16
ATOM     16  C   UNL     1       0.016  -0.103   0.000  0.00  0.00    +0.000 A 
ATOM     17  C   UNL     1      -0.698   0.309   0.000  0.00  0.00    +0.000 A 
ATOM     18  C   UNL     1      -0.698   1.134   0.000  0.00  0.00    +0.000 A 
ATOM     19  C   UNL     1       0.016   1.547   0.000  0.00  0.00    +0.000 A 
ATOM     20  C   UNL     1       0.731   1.134   0.000  0.00  0.00    +0.000 A 
ATOM     21  C   UNL     1       0.731   0.309   0.000  0.00  0.00    +0.000 A 
BRANCH  20  22
ATOM     22  O   UNL     1       1.445   1.547   0.000  0.00  0.00    +0.000 OA
BRANCH  22  23
ATOM     23  C   UNL     1       2.160   1.134   0.000  0.00  0.00    +0.000 C 
BRANCH  23  24
ATOM     24  C   UNL     1       2.874   1.547   0.000  0.00  0.00    +0.000 C 
ATOM     25  O   UNL     1       2.874   2.372   0.000  0.00  0.00    +0.000 OA
BRANCH  24  26
ATOM     26  C   UNL     1       3.589   1.134   0.000  0.00  0.00    +0.000 C 
ATOM     27  O   UNL     1       4.303   1.547   0.000  0.00  0.00    +0.000 OA
ENDBRANCH  24  26
ENDBRANCH  23  24
ENDBRANCH  22  23
ENDBRANCH  20  22
ENDBRANCH   1  16
TORSDOF 7
