REMARK  Name = PR2
REMARK  5 active torsions:
REMARK  status: ('A' for Active; 'I' for Inactive)
REMARK    1  A    between atoms: C_8  and  S_16
REMARK    2  A    between atoms: N_10  and  C_20
REMARK    3  A    between atoms: C_12  and  N_15
REMARK    4  A    between atoms: N_15  and  S_16
REMARK    5  A    between atoms: C_20  and  C_28
REMARK                            x       y       z     vdW  Elec       q    Type
REMARK                         _______ _______ _______ _____ _____    ______ ____
ROOT
ATOM      1  N   UNL     1       0.127   1.413   0.000  0.00  0.00    +0.000 N 
ATOM      2  C   UNL     1       0.462   0.659   0.000  0.00  0.00    +0.000 C 
ATOM      3  C   UNL     1      -0.151   0.107   0.000  0.00  0.00    +0.000 C 
ATOM      4  C   UNL     1      -0.865   0.520   0.000  0.00  0.00    +0.000 C 
ATOM      5  C   UNL     1      -0.694   1.327   0.000  0.00  0.00    +0.000 C 
ATOM      6  O   UNL     1       1.269   0.488   0.000  0.00  0.00    +0.000 OA
ENDROOT
BRANCH   3   7
ATOM      7  N   UNL     1      -0.065  -0.713   0.000  0.00  0.00    +0.000 NA
BRANCH   7   8
ATOM      8  S   UNL     1      -0.732  -1.198   0.000  0.00  0.00    +0.000 S 
ATOM      9  O   UNL     1      -0.247  -1.866   0.000  0.00  0.00    +0.000 OA
ATOM     10  O   UNL     1      -1.217  -0.531   0.000  0.00  0.00    +0.000 OA
BRANCH   8  18
ATOM     11  C   UNL     1      -2.184  -2.763   0.000  0.00  0.00    +0.000 A 
ATOM     12  C   UNL     1      -2.520  -3.517   0.000  0.00  0.00    +0.000 A 
ATOM     13  C   UNL     1      -3.340  -3.603   0.000  0.00  0.00    +0.000 A 
ATOM     14  C   UNL     1      -3.825  -2.936   0.000  0.00  0.00    +0.000 A 
ATOM     15  N   UNL     1      -3.490  -2.182   0.000  0.00  0.00    +0.000 NA
ATOM     16  C   UNL     1      -2.669  -2.096   0.000  0.00  0.00    +0.000 A 
ATOM     17  C   UNL     1      -2.184  -1.428   0.000  0.00  0.00    +0.000 A 
ATOM     18  C   UNL     1      -1.399  -1.683   0.000  0.00  0.00    +0.000 A 
ATOM     19  S   UNL     1      -1.399  -2.508   0.000  0.00  0.00    +0.000 S 
ENDBRANCH   8  18
ENDBRANCH   7   8
ENDBRANCH   3   7
BRANCH   1  20
ATOM     20  C   UNL     1       0.539   2.127   0.000  0.00  0.00    +0.000 C 
BRANCH  20  28
ATOM     21  C   UNL     1       2.634   1.715   0.000  0.00  0.00    +0.000 A 
ATOM     22  C   UNL     1       2.634   2.540   0.000  0.00  0.00    +0.000 A 
ATOM     23  C   UNL     1       3.348   2.952   0.000  0.00  0.00    +0.000 A 
ATOM     24  C   UNL     1       4.063   2.540   0.000  0.00  0.00    +0.000 A 
ATOM     25  N   UNL     1       4.063   1.715   0.000  0.00  0.00    +0.000 NA
ATOM     26  C   UNL     1       3.348   1.302   0.000  0.00  0.00    +0.000 A 
ATOM     27  C   UNL     1       1.849   2.795   0.000  0.00  0.00    +0.000 A 
ATOM     28  C   UNL     1       1.364   2.127   0.000  0.00  0.00    +0.000 A 
ATOM     29  N   UNL     1       1.849   1.460   0.000  0.00  0.00    +0.000 NA
ENDBRANCH  20  28
ENDBRANCH   1  20
TORSDOF 5
