REMARK  Name = PRB
REMARK  3 active torsions:
REMARK  status: ('A' for Active; 'I' for Inactive)
REMARK    1  A    between atoms: C_8  and  C_24
REMARK    2  A    between atoms: C_17  and  O_26
REMARK    3  A    between atoms: O_26  and  C_27
REMARK                            x       y       z     vdW  Elec       q    Type
REMARK                         _______ _______ _______ _____ _____    ______ ____
ROOT
ATOM      1  C   UNL     1       1.567   0.594   0.000  0.00  0.00    +0.000 C 
ATOM      2  C   UNL     1       2.342   0.312   0.000  0.00  0.00    +0.000 C 
ATOM      3  C   UNL     1       2.314  -0.512   0.000  0.00  0.00    +0.000 C 
ATOM      4  O   UNL     1       2.964  -1.020   0.000  0.00  0.00    +0.000 OA
ATOM      5  C   UNL     1       1.521  -0.740   0.000  0.00  0.00    +0.000 C 
ATOM      6  O   UNL     1       2.097  -1.330   0.000  0.00  0.00    +0.000 OA
ATOM      7  C   UNL     1       1.274  -1.527   0.000  0.00  0.00    +0.000 C 
ATOM      8  C   UNL     1       0.505  -1.825   0.000  0.00  0.00    +0.000 C 
ATOM      9  C   UNL     1      -0.208  -1.409   0.000  0.00  0.00    +0.000 C 
ATOM     10  C   UNL     1      -0.327  -0.593   0.000  0.00  0.00    +0.000 C 
ATOM     11  C   UNL     1       0.237   0.009   0.000  0.00  0.00    +0.000 C 
ATOM     12  O   UNL     1       0.754   0.652   0.000  0.00  0.00    +0.000 OA
ATOM     13  C   UNL     1       1.059  -0.056   0.000  0.00  0.00    +0.000 C 
ATOM     14  C   UNL     1      -0.003   0.799   0.000  0.00  0.00    +0.000 C 
ATOM     15  C   UNL     1      -0.806   0.986   0.000  0.00  0.00    +0.000 C 
ATOM     16  O   UNL     1      -1.046   1.775   0.000  0.00  0.00    +0.000 OA
ATOM     17  C   UNL     1      -1.370   0.384   0.000  0.00  0.00    +0.000 C 
ATOM     18  C   UNL     1      -1.130  -0.406   0.000  0.00  0.00    +0.000 C 
ATOM     19  C   UNL     1      -1.934  -0.219   0.000  0.00  0.00    +0.000 C 
ATOM     20  C   UNL     1      -2.718   0.038   0.000  0.00  0.00    +0.000 C 
ATOM     21  C   UNL     1      -2.443  -0.868   0.000  0.00  0.00    +0.000 C 
ATOM     22  C   UNL     1       0.561   1.401   0.000  0.00  0.00    +0.000 C 
ATOM     23  C   UNL     1       3.026   0.774   0.000  0.00  0.00    +0.000 C 
ENDROOT
BRANCH   8  24
ATOM     24  C   UNL     1       0.440  -2.647   0.000  0.00  0.00    +0.000 C 
ATOM     25  O   UNL     1      -0.305  -3.002   0.000  0.00  0.00    +0.000 OA
ENDBRANCH   8  24
BRANCH  17  26
ATOM     26  O   UNL     1      -1.972   0.947   0.000  0.00  0.00    +0.000 OA
BRANCH  26  27
ATOM     27  C   UNL     1      -1.785   1.751   0.000  0.00  0.00    +0.000 C 
ATOM     28  O   UNL     1      -2.387   2.315   0.000  0.00  0.00    +0.000 OA
ATOM     29  C   UNL     1      -1.108   2.223   0.000  0.00  0.00    +0.000 C 
ENDBRANCH  26  27
ENDBRANCH  17  26
TORSDOF 3
