REMARK  Name = PRC
REMARK  4 active torsions:
REMARK  status: ('A' for Active; 'I' for Inactive)
REMARK    1  A    between atoms: C_5  and  C_7
REMARK    2  A    between atoms: N_13  and  C_14
REMARK    3  A    between atoms: C_16  and  N_21
REMARK    4  A    between atoms: C_22  and  C_23
REMARK                            x       y       z     vdW  Elec       q    Type
REMARK                         _______ _______ _______ _____ _____    ______ ____
ROOT
ATOM      1  C   UNL     1      -0.438  -0.066   0.000  0.00  0.00    +0.000 A 
ATOM      2  C   UNL     1      -0.438  -0.891   0.000  0.00  0.00    +0.000 A 
ATOM      3  C   UNL     1      -1.153  -1.303   0.000  0.00  0.00    +0.000 A 
ATOM      4  C   UNL     1      -1.867  -0.891   0.000  0.00  0.00    +0.000 A 
ATOM      5  C   UNL     1      -1.867  -0.066   0.000  0.00  0.00    +0.000 A 
ATOM      6  C   UNL     1      -1.153   0.347   0.000  0.00  0.00    +0.000 A 
ATOM      7  C   UNL     1      -1.153   1.172   0.000  0.00  0.00    +0.000 C 
ENDROOT
BRANCH   1  14
ATOM      8  C   UNL     1       0.991   2.409   0.000  0.00  0.00    +0.000 A 
ATOM      9  N   UNL     1       0.991   1.584   0.000  0.00  0.00    +0.000 NA
ATOM     10  C   UNL     1       0.276   1.172   0.000  0.00  0.00    +0.000 A 
ATOM     11  N   UNL     1      -0.438   1.584   0.000  0.00  0.00    +0.000 NA
ATOM     12  C   UNL     1      -0.438   2.409   0.000  0.00  0.00    +0.000 A 
ATOM     13  C   UNL     1       0.276   2.822   0.000  0.00  0.00    +0.000 A 
ATOM     14  N   UNL     1       0.276   0.347   0.000  0.00  0.00    +0.000 NA
BRANCH   8  19
ATOM     15  C   UNL     1       2.420   4.059   0.000  0.00  0.00    +0.000 A 
ATOM     16  C   UNL     1       3.134   3.647   0.000  0.00  0.00    +0.000 A 
ATOM     17  N   UNL     1       3.134   2.822   0.000  0.00  0.00    +0.000 NA
ATOM     18  C   UNL     1       2.420   2.409   0.000  0.00  0.00    +0.000 A 
ATOM     19  C   UNL     1       1.705   2.822   0.000  0.00  0.00    +0.000 A 
ATOM     20  C   UNL     1       1.705   3.647   0.000  0.00  0.00    +0.000 A 
ENDBRANCH   8  19
ENDBRANCH   1  14
BRANCH   3  21
ATOM     21  N   UNL     1      -1.153  -2.128   0.000  0.00  0.00    +0.000 NA
ATOM     22  C   UNL     1      -0.438  -2.541   0.000  0.00  0.00    +0.000 C 
ATOM     23  O   UNL     1       0.276  -2.128   0.000  0.00  0.00    +0.000 OA
BRANCH  22  24
ATOM     24  C   UNL     1      -0.438  -3.366   0.000  0.00  0.00    +0.000 A 
ATOM     25  C   UNL     1       0.276  -3.778   0.000  0.00  0.00    +0.000 A 
ATOM     26  C   UNL     1       0.276  -4.603   0.000  0.00  0.00    +0.000 A 
ATOM     27  C   UNL     1      -0.438  -5.016   0.000  0.00  0.00    +0.000 A 
ATOM     28  N   UNL     1      -1.153  -4.603   0.000  0.00  0.00    +0.000 NA
ATOM     29  C   UNL     1      -1.153  -3.778   0.000  0.00  0.00    +0.000 A 
ENDBRANCH  22  24
ENDBRANCH   3  21
TORSDOF 4
