REMARK  Name = PRD
REMARK  5 active torsions:
REMARK  status: ('A' for Active; 'I' for Inactive)
REMARK    1  A    between atoms: C_6  and  N_7
REMARK    2  A    between atoms: N_7  and  C_15
REMARK    3  A    between atoms: C_15  and  C_16
REMARK    4  A    between atoms: C_17  and  O_22
REMARK    5  A    between atoms: C_20  and  O_24
REMARK                            x       y       z     vdW  Elec       q    Type
REMARK                         _______ _______ _______ _____ _____    ______ ____
ROOT
ATOM      1  N   UNL     1       0.086   0.030   0.000  0.00  0.00    +0.000 N 
ATOM      2  C   UNL     1       0.086  -0.795   0.000  0.00  0.00    +0.000 C 
ENDROOT
BRANCH   1   8
ATOM      3  C   UNL     1       2.229   0.443   0.000  0.00  0.00    +0.000 A 
ATOM      4  C   UNL     1       2.229   1.268   0.000  0.00  0.00    +0.000 A 
ATOM      5  N   UNL     1       2.944   1.680   0.000  0.00  0.00    +0.000 NA
ATOM      6  N   UNL     1       1.515   1.680   0.000  0.00  0.00    +0.000 NA
ATOM      7  C   UNL     1       0.800   1.268   0.000  0.00  0.00    +0.000 A 
ATOM      8  C   UNL     1       0.800   0.443   0.000  0.00  0.00    +0.000 A 
ATOM      9  C   UNL     1       1.515   0.030   0.000  0.00  0.00    +0.000 A 
ATOM     10  C   UNL     1       2.944   0.030   0.000  0.00  0.00    +0.000 A 
ATOM     11  N   UNL     1       2.944  -0.795   0.000  0.00  0.00    +0.000 NA
ATOM     12  N   UNL     1       3.658   0.443   0.000  0.00  0.00    +0.000 NA
ATOM     13  C   UNL     1       3.658   1.268   0.000  0.00  0.00    +0.000 A 
ATOM     14  N   UNL     1       4.373   1.680   0.000  0.00  0.00    +0.000 NA
ENDBRANCH   1   8
BRANCH   1  15
ATOM     15  C   UNL     1      -0.629   0.443   0.000  0.00  0.00    +0.000 C 
BRANCH  15  16
ATOM     16  C   UNL     1      -1.343   0.030   0.000  0.00  0.00    +0.000 A 
ATOM     17  C   UNL     1      -1.343  -0.795   0.000  0.00  0.00    +0.000 A 
ATOM     18  C   UNL     1      -2.058  -1.207   0.000  0.00  0.00    +0.000 A 
ATOM     19  C   UNL     1      -2.772  -0.795   0.000  0.00  0.00    +0.000 A 
ATOM     20  C   UNL     1      -2.772   0.030   0.000  0.00  0.00    +0.000 A 
ATOM     21  C   UNL     1      -2.058   0.443   0.000  0.00  0.00    +0.000 A 
BRANCH  17  22
ATOM     22  O   UNL     1      -0.629  -1.207   0.000  0.00  0.00    +0.000 OA
ATOM     23  C   UNL     1      -0.629  -2.032   0.000  0.00  0.00    +0.000 C 
ENDBRANCH  17  22
BRANCH  20  24
ATOM     24  O   UNL     1      -3.487   0.443   0.000  0.00  0.00    +0.000 OA
ATOM     25  C   UNL     1      -4.201   0.030   0.000  0.00  0.00    +0.000 C 
ENDBRANCH  20  24
ENDBRANCH  15  16
ENDBRANCH   1  15
TORSDOF 5
