REMARK  Name = Pregnenolone.mol
REMARK  6 active torsions:
REMARK  status: ('A' for Active; 'I' for Inactive)
REMARK    1  A    between atoms: C_3  and  C_8
REMARK    2  A    between atoms: C_4  and  C_11
REMARK    3  A    between atoms: C_5  and  C_15
REMARK    4  A    between atoms: C_6  and  C_7
REMARK    5  A    between atoms: C_7  and  C_8
REMARK    6  A    between atoms: C_11  and  C_12
REMARK                            x       y       z     vdW  Elec       q    Type
REMARK                         _______ _______ _______ _____ _____    ______ ____
ROOT
ATOM      1  N   UNL     1       1.103  -1.666   0.000  0.00  0.00    +0.000 NA
ATOM      2  C   UNL     1       0.278  -1.666   0.000  0.00  0.00    +0.000 A 
ATOM      3  C   UNL     1       0.023  -0.881   0.000  0.00  0.00    +0.000 A 
ATOM      4  C   UNL     1       0.690  -0.397   0.000  0.00  0.00    +0.000 A 
ATOM      5  C   UNL     1       1.358  -0.881   0.000  0.00  0.00    +0.000 A 
ENDROOT
BRANCH   5   6
ATOM      6  C   UNL     1       2.142  -0.626   0.000  0.00  0.00    +0.000 C 
ATOM      7  N   UNL     1       2.725  -1.210   0.000  0.00  0.00    +0.000 NA
ENDBRANCH   5   6
BRANCH   4   8
ATOM      8  C   UNL     1       0.690   0.428   0.000  0.00  0.00    +0.000 C 
BRANCH   8   9
ATOM      9  C   UNL     1      -0.024   0.841   0.000  0.00  0.00    +0.000 C 
ATOM     10  O   UNL     1      -0.024   1.666   0.000  0.00  0.00    +0.000 OA
ATOM     11  O   UNL     1      -0.739   0.428   0.000  0.00  0.00    +0.000 OA
ENDBRANCH   8   9
ENDBRANCH   4   8
BRANCH   3  12
ATOM     12  C   UNL     1      -0.762  -0.626   0.000  0.00  0.00    +0.000 C 
BRANCH  12  13
ATOM     13  C   UNL     1      -1.345  -1.210   0.000  0.00  0.00    +0.000 C 
BRANCH  13  14
ATOM     14  C   UNL     1      -2.142  -0.996   0.000  0.00  0.00    +0.000 C 
ATOM     15  O   UNL     1      -2.725  -1.580   0.000  0.00  0.00    +0.000 OA
ATOM     16  O   UNL     1      -2.356  -0.199   0.000  0.00  0.00    +0.000 OA
ENDBRANCH  13  14
ENDBRANCH  12  13
ENDBRANCH   3  12
TORSDOF 6
