REMARK  Name = PS0
REMARK  3 active torsions:
REMARK  status: ('A' for Active; 'I' for Inactive)
REMARK    1  A    between atoms: C_2  and  C_3
REMARK    2  A    between atoms: C_2  and  C_5
REMARK    3  A    between atoms: C_5  and  C_6
REMARK                            x       y       z     vdW  Elec       q    Type
REMARK                         _______ _______ _______ _____ _____    ______ ____
ROOT
ATOM      1  C   UNL     1       0.229  -0.247   0.000  0.00  0.00    +0.000 C 
ENDROOT
BRANCH   1   2
ATOM      2  C   UNL     1      -0.486  -0.659   0.000  0.00  0.00    +0.000 A 
ATOM      3  C   UNL     1      -0.486  -1.484   0.000  0.00  0.00    +0.000 A 
ATOM      4  C   UNL     1      -1.200  -0.247   0.000  0.00  0.00    +0.000 A 
ATOM      5  C   UNL     1      -1.200  -1.897   0.000  0.00  0.00    +0.000 A 
ATOM      6  C   UNL     1      -1.915  -0.659   0.000  0.00  0.00    +0.000 A 
ATOM      7  C   UNL     1      -1.915  -1.484   0.000  0.00  0.00    +0.000 A 
ENDBRANCH   1   2
BRANCH   1   9
ATOM      8  N   UNL     1      -0.486   0.991   0.000  0.00  0.00    +0.000 NA
ATOM      9  C   UNL     1       0.229   0.578   0.000  0.00  0.00    +0.000 C 
BRANCH   9  10
ATOM     10  C   UNL     1       0.943   0.991   0.000  0.00  0.00    +0.000 C 
ATOM     11  O   UNL     1       0.943   1.816   0.000  0.00  0.00    +0.000 OA
ATOM     12  C   UNL     1       1.658   0.578   0.000  0.00  0.00    +0.000 C 
ENDBRANCH   9  10
ENDBRANCH   1   9
TORSDOF 3
