REMARK  Name = PS4
REMARK  8 active torsions:
REMARK  status: ('A' for Active; 'I' for Inactive)
REMARK    1  A    between atoms: C_3  and  C_29
REMARK    2  A    between atoms: C_6  and  C_7
REMARK    3  A    between atoms: C_6  and  C_27
REMARK    4  A    between atoms: C_8  and  C_9
REMARK    5  A    between atoms: C_9  and  N_23
REMARK    6  A    between atoms: C_14  and  S_20
REMARK    7  A    between atoms: C_16  and  C_17
REMARK    8  A    between atoms: C_27  and  C_29
REMARK                            x       y       z     vdW  Elec       q    Type
REMARK                         _______ _______ _______ _____ _____    ______ ____
ROOT
ATOM      1  C   UNL     1       1.143   0.907   0.000  0.00  0.00    +0.000 C 
ATOM      2  C   UNL     1      -0.325   0.984   0.000  0.00  0.00    +0.000 C 
ATOM      3  C   UNL     1      -0.465   2.312   0.000  0.00  0.00    +0.000 C 
ATOM      4  C   UNL     1      -0.877   1.597   0.000  0.00  0.00    +0.000 C 
ATOM      5  C   UNL     1       0.342   2.140   0.000  0.00  0.00    +0.000 C 
ATOM      6  N   UNL     1       0.429   1.320   0.000  0.00  0.00    +0.000 N 
ATOM      7  O   UNL     1       1.143   0.082   0.000  0.00  0.00    +0.000 OA
ENDROOT
BRANCH   2   8
ATOM      8  C   UNL     1      -0.497   0.177   0.000  0.00  0.00    +0.000 C 
BRANCH   8  11
ATOM      9  O   UNL     1      -0.840  -1.437   0.000  0.00  0.00    +0.000 OA
ATOM     10  C   UNL     1      -1.453  -0.885   0.000  0.00  0.00    +0.000 C 
ATOM     11  N   UNL     1      -1.281  -0.078   0.000  0.00  0.00    +0.000 NA
BRANCH  10  15
ATOM     12  C   UNL     1      -3.193  -2.202   0.000  0.00  0.00    +0.000 A 
ATOM     13  C   UNL     1      -2.850  -0.588   0.000  0.00  0.00    +0.000 A 
ATOM     14  C   UNL     1      -3.635  -0.843   0.000  0.00  0.00    +0.000 A 
ATOM     15  C   UNL     1      -2.237  -1.140   0.000  0.00  0.00    +0.000 A 
ATOM     16  C   UNL     1      -3.807  -1.650   0.000  0.00  0.00    +0.000 A 
ATOM     17  C   UNL     1      -2.409  -1.947   0.000  0.00  0.00    +0.000 A 
BRANCH  14  19
ATOM     18  C   UNL     1      -4.861   0.261   0.000  0.00  0.00    +0.000 C 
ATOM     19  S   UNL     1      -4.248  -0.291   0.000  0.00  0.00    +0.000 S 
ATOM     20  O   UNL     1      -4.800  -0.904   0.000  0.00  0.00    +0.000 OA
ATOM     21  O   UNL     1      -3.696   0.322   0.000  0.00  0.00    +0.000 OA
ENDBRANCH  14  19
ENDBRANCH  10  15
ENDBRANCH   8  11
ENDBRANCH   2   8
BRANCH   1  22
ATOM     22  C   UNL     1       1.858   1.320   0.000  0.00  0.00    +0.000 C 
BRANCH  22  23
ATOM     23  C   UNL     1       2.572   0.907   0.000  0.00  0.00    +0.000 C 
ATOM     24  N   UNL     1       2.572   0.082   0.000  0.00  0.00    +0.000 NA
BRANCH  23  25
ATOM     25  C   UNL     1       3.287   1.320   0.000  0.00  0.00    +0.000 C 
BRANCH  25  27
ATOM     26  C   UNL     1       4.001   0.082   0.000  0.00  0.00    +0.000 A 
ATOM     27  C   UNL     1       4.001   0.907   0.000  0.00  0.00    +0.000 A 
ATOM     28  C   UNL     1       5.430   0.082   0.000  0.00  0.00    +0.000 A 
ATOM     29  C   UNL     1       5.430   0.907   0.000  0.00  0.00    +0.000 A 
ATOM     30  C   UNL     1       4.715   1.320   0.000  0.00  0.00    +0.000 A 
ATOM     31  C   UNL     1       4.715  -0.330   0.000  0.00  0.00    +0.000 A 
ATOM     32 CL   UNL     1       4.715  -1.155   0.000  0.00  0.00    +0.000 Cl
ENDBRANCH  25  27
ENDBRANCH  23  25
ENDBRANCH  22  23
ENDBRANCH   1  22
TORSDOF 8
