REMARK  Name = PSG
REMARK  4 active torsions:
REMARK  status: ('A' for Active; 'I' for Inactive)
REMARK    1  A    between atoms: C_3  and  N_7
REMARK    2  A    between atoms: C_6  and  S_10
REMARK    3  A    between atoms: S_10  and  C_11
REMARK    4  A    between atoms: C_15  and  C_16
REMARK                            x       y       z     vdW  Elec       q    Type
REMARK                         _______ _______ _______ _____ _____    ______ ____
ROOT
ATOM      1  C   UNL     1      -0.384  -0.811   0.000  0.00  0.00    +0.000 C 
ATOM      2  C   UNL     1      -1.099  -0.398   0.000  0.00  0.00    +0.000 C 
ATOM      3  C   UNL     1      -1.099   0.427   0.000  0.00  0.00    +0.000 C 
ATOM      4  C   UNL     1      -0.384   0.839   0.000  0.00  0.00    +0.000 C 
ATOM      5  C   UNL     1       0.330   0.427   0.000  0.00  0.00    +0.000 C 
ATOM      6  O   UNL     1      -1.813  -0.811   0.000  0.00  0.00    +0.000 OA
ATOM      7  O   UNL     1      -1.813   0.839   0.000  0.00  0.00    +0.000 OA
ATOM      8  O   UNL     1      -0.384   1.664   0.000  0.00  0.00    +0.000 OA
ATOM      9  O   UNL     1       0.330  -0.398   0.000  0.00  0.00    +0.000 OA
ENDROOT
BRANCH   5  10
ATOM     10  C   UNL     1       1.045   0.839   0.000  0.00  0.00    +0.000 C 
ATOM     11  O   UNL     1       1.759   0.427   0.000  0.00  0.00    +0.000 OA
ENDBRANCH   5  10
BRANCH   1  12
ATOM     12  S   UNL     1      -0.384  -1.636   0.000  0.00  0.00    +0.000 S 
BRANCH  12  18
ATOM     13  C   UNL     1       1.045  -1.636   0.000  0.00  0.00    +0.000 A 
ATOM     14  C   UNL     1       1.759  -2.048   0.000  0.00  0.00    +0.000 A 
ATOM     15  C   UNL     1       1.759  -2.873   0.000  0.00  0.00    +0.000 A 
ATOM     16  C   UNL     1       1.045  -3.286   0.000  0.00  0.00    +0.000 A 
ATOM     17  C   UNL     1       0.330  -2.873   0.000  0.00  0.00    +0.000 A 
ATOM     18  C   UNL     1       0.330  -2.048   0.000  0.00  0.00    +0.000 A 
BRANCH  15  19
ATOM     19  N   UNL     1       2.474  -3.286   0.000  0.00  0.00    +0.000 N 
ATOM     20  O   UNL     1       2.474  -4.111   0.000  0.00  0.00    +0.000 OA
ATOM     21  O   UNL     1       3.188  -2.873   0.000  0.00  0.00    +0.000 OA
ENDBRANCH  15  19
ENDBRANCH  12  18
ENDBRANCH   1  12
TORSDOF 4
