REMARK  Name = PSK
REMARK  5 active torsions:
REMARK  status: ('A' for Active; 'I' for Inactive)
REMARK    1  A    between atoms: C_2  and  C_3
REMARK    2  A    between atoms: C_3  and  C_5
REMARK    3  A    between atoms: C_5  and  C_7
REMARK    4  A    between atoms: C_7  and  C_9
REMARK    5  A    between atoms: C_9  and  P_10
REMARK                            x       y       z     vdW  Elec       q    Type
REMARK                         _______ _______ _______ _____ _____    ______ ____
ROOT
ATOM      1  C   UNL     1       1.275  -0.424   0.000  0.00  0.00    +0.000 C 
ATOM      2  O   UNL     1       1.275  -1.249   0.000  0.00  0.00    +0.000 OA
ENDROOT
BRANCH   1   3
ATOM      3  C   UNL     1       0.560  -0.012   0.000  0.00  0.00    +0.000 C 
ATOM      4  C   UNL     1       0.560   0.814   0.000  0.00  0.00    +0.000 C 
BRANCH   3   5
ATOM      5  C   UNL     1      -0.154  -0.424   0.000  0.00  0.00    +0.000 C 
ATOM      6  O   UNL     1      -0.154  -1.249   0.000  0.00  0.00    +0.000 OA
BRANCH   5   8
ATOM      7  C   UNL     1      -1.583  -0.424   0.000  0.00  0.00    +0.000 C 
ATOM      8  C   UNL     1      -0.869  -0.012   0.000  0.00  0.00    +0.000 C 
ENDBRANCH   5   8
ENDBRANCH   3   5
ENDBRANCH   1   3
BRANCH   1   9
ATOM      9  C   UNL     1       1.989  -0.012   0.000  0.00  0.00    +0.000 C 
BRANCH   9  10
ATOM     10  P   UNL     1       2.704  -0.424   0.000  0.00  0.00    +0.000 P 
ATOM     11  O   UNL     1       3.418  -0.012   0.000  0.00  0.00    +0.000 OA
ATOM     12  O   UNL     1       2.704  -1.249   0.000  0.00  0.00    +0.000 OA
ATOM     13  H   UNL     1       2.704   0.304   0.000  0.00  0.00    +0.000 HD
ENDBRANCH   9  10
ENDBRANCH   1   9
TORSDOF 5
