REMARK  Name = PSN
REMARK  6 active torsions:
REMARK  status: ('A' for Active; 'I' for Inactive)
REMARK    1  A    between atoms: C_4  and  C_7
REMARK    2  A    between atoms: C_5  and  O_8
REMARK    3  A    between atoms: O_8  and  P_9
REMARK    4  A    between atoms: P_9  and  O_10
REMARK    5  A    between atoms: O_10  and  C_12
REMARK    6  A    between atoms: C_12  and  C_13
REMARK                            x       y       z     vdW  Elec       q    Type
REMARK                         _______ _______ _______ _____ _____    ______ ____
ROOT
ATOM      1  P   UNL     1      -0.089   0.318   0.000  0.00  0.00    +0.000 P 
ATOM      2  O   UNL     1      -0.502  -0.397   0.000  0.00  0.00    +0.000 OA
ATOM      3  O   UNL     1       0.323   1.032   0.000  0.00  0.00    +0.000 OA
ENDROOT
BRANCH   1   4
ATOM      4  O   UNL     1      -0.804   0.730   0.000  0.00  0.00    +0.000 OA
BRANCH   4   9
ATOM      5  C   UNL     1      -2.233  -0.920   0.000  0.00  0.00    +0.000 A 
ATOM      6  C   UNL     1      -2.947  -0.507   0.000  0.00  0.00    +0.000 A 
ATOM      7  C   UNL     1      -2.947   0.318   0.000  0.00  0.00    +0.000 A 
ATOM      8  C   UNL     1      -2.233   0.730   0.000  0.00  0.00    +0.000 A 
ATOM      9  C   UNL     1      -1.518   0.318   0.000  0.00  0.00    +0.000 A 
ATOM     10  C   UNL     1      -1.518  -0.507   0.000  0.00  0.00    +0.000 A 
BRANCH   8  11
ATOM     11  C   UNL     1      -2.233   1.555   0.000  0.00  0.00    +0.000 C 
ATOM     12  O   UNL     1      -1.518   1.968   0.000  0.00  0.00    +0.000 OA
ENDBRANCH   8  11
ENDBRANCH   4   9
ENDBRANCH   1   4
BRANCH   1  13
ATOM     13  O   UNL     1       0.625  -0.095   0.000  0.00  0.00    +0.000 OA
BRANCH  13  14
ATOM     14  C   UNL     1       1.340   0.318   0.000  0.00  0.00    +0.000 C 
BRANCH  14  15
ATOM     15  C   UNL     1       2.054  -0.095   0.000  0.00  0.00    +0.000 A 
ATOM     16  C   UNL     1       2.769   0.318   0.000  0.00  0.00    +0.000 A 
ATOM     17  C   UNL     1       3.483  -0.095   0.000  0.00  0.00    +0.000 A 
ATOM     18  C   UNL     1       3.483  -0.920   0.000  0.00  0.00    +0.000 A 
ATOM     19  C   UNL     1       2.769  -1.332   0.000  0.00  0.00    +0.000 A 
ATOM     20  C   UNL     1       2.054  -0.920   0.000  0.00  0.00    +0.000 A 
ENDBRANCH  14  15
ENDBRANCH  13  14
ENDBRANCH   1  13
TORSDOF 6
