REMARK  Name = PST
REMARK  4 active torsions:
REMARK  status: ('A' for Active; 'I' for Inactive)
REMARK    1  A    between atoms: P_1  and  O_5
REMARK    2  A    between atoms: O_5  and  C_6
REMARK    3  A    between atoms: C_6  and  C_7
REMARK    4  A    between atoms: C_12  and  N_13
REMARK                            x       y       z     vdW  Elec       q    Type
REMARK                         _______ _______ _______ _____ _____    ______ ____
ROOT
ATOM      1  C   UNL     1      -0.496   0.782   0.000  0.00  0.00    +0.000 C 
ATOM      2  O   UNL     1       0.172   0.297   0.000  0.00  0.00    +0.000 OA
ATOM      3  C   UNL     1      -1.163   0.297   0.000  0.00  0.00    +0.000 C 
ATOM      4  O   UNL     1      -1.948   0.552   0.000  0.00  0.00    +0.000 OA
ATOM      5  C   UNL     1      -0.908  -0.487   0.000  0.00  0.00    +0.000 C 
ATOM      6  C   UNL     1      -0.083  -0.487   0.000  0.00  0.00    +0.000 C 
ENDROOT
BRANCH   6   7
ATOM      7  N   UNL     1       0.402  -1.155   0.000  0.00  0.00    +0.000 N 
ATOM      8  C   UNL     1       1.222  -1.068   0.000  0.00  0.00    +0.000 A 
ATOM      9  O   UNL     1       1.558  -0.315   0.000  0.00  0.00    +0.000 OA
ATOM     10  N   UNL     1       1.707  -1.736   0.000  0.00  0.00    +0.000 NA
ATOM     11  C   UNL     1       1.371  -2.490   0.000  0.00  0.00    +0.000 A 
ATOM     12  O   UNL     1       1.856  -3.157   0.000  0.00  0.00    +0.000 OA
ATOM     13  C   UNL     1       0.551  -2.576   0.000  0.00  0.00    +0.000 A 
ATOM     14  C   UNL     1       0.215  -3.329   0.000  0.00  0.00    +0.000 C 
ATOM     15  C   UNL     1       0.066  -1.908   0.000  0.00  0.00    +0.000 A 
ENDBRANCH   6   7
BRANCH   1  16
ATOM     16  C   UNL     1      -0.496   1.607   0.000  0.00  0.00    +0.000 C 
BRANCH  16  17
ATOM     17  O   UNL     1      -1.210   2.020   0.000  0.00  0.00    +0.000 OA
BRANCH  17  18
ATOM     18  P   UNL     1      -1.210   2.845   0.000  0.00  0.00    +0.000 P 
ATOM     19  O   UNL     1      -1.210   3.670   0.000  0.00  0.00    +0.000 OA
ATOM     20  O   UNL     1      -2.035   2.845   0.000  0.00  0.00    +0.000 OA
ATOM     21  S   UNL     1      -0.385   2.845   0.000  0.00  0.00    +0.000 S 
ENDBRANCH  17  18
ENDBRANCH  16  17
ENDBRANCH   1  16
TORSDOF 4
