REMARK  Name = PSY
REMARK  3 active torsions:
REMARK  status: ('A' for Active; 'I' for Inactive)
REMARK    1  A    between atoms: C_6  and  O_7
REMARK    2  A    between atoms: O_7  and  S_8
REMARK    3  A    between atoms: S_8  and  C_11
REMARK                            x       y       z     vdW  Elec       q    Type
REMARK                         _______ _______ _______ _____ _____    ______ ____
ROOT
ATOM      1  C   UNL     1       2.121   0.315   0.000  0.00  0.00    +0.000 A 
ATOM      2  C   UNL     1       2.121  -0.510   0.000  0.00  0.00    +0.000 A 
ATOM      3  C   UNL     1       1.406   0.728   0.000  0.00  0.00    +0.000 A 
ATOM      4  C   UNL     1       1.406  -0.922   0.000  0.00  0.00    +0.000 A 
ATOM      5  C   UNL     1       0.692   0.315   0.000  0.00  0.00    +0.000 A 
ATOM      6  C   UNL     1       0.692  -0.510   0.000  0.00  0.00    +0.000 A 
ENDROOT
BRANCH   6   7
ATOM      7  O   UNL     1      -0.023  -0.922   0.000  0.00  0.00    +0.000 OA
BRANCH   7   8
ATOM      8  S   UNL     1      -0.737  -0.510   0.000  0.00  0.00    +0.000 S 
ATOM      9  O   UNL     1      -0.325   0.205   0.000  0.00  0.00    +0.000 OA
ATOM     10  O   UNL     1      -1.149  -1.224   0.000  0.00  0.00    +0.000 OA
BRANCH   8  11
ATOM     11  C   UNL     1      -1.452  -0.097   0.000  0.00  0.00    +0.000 C 
ATOM     12  C   UNL     1      -2.166  -0.510   0.000  0.00  0.00    +0.000 C 
ENDBRANCH   8  11
ENDBRANCH   7   8
ENDBRANCH   6   7
TORSDOF 3
