REMARK  Name = PTB
REMARK  3 active torsions:
REMARK  status: ('A' for Active; 'I' for Inactive)
REMARK    1  A    between atoms: C_2  and  C_3
REMARK    2  A    between atoms: C_3  and  C_8
REMARK    3  A    between atoms: C_11  and  C_13
REMARK                            x       y       z     vdW  Elec       q    Type
REMARK                         _______ _______ _______ _____ _____    ______ ____
ROOT
ATOM      1  C   UNL     1      -0.158  -0.110   0.000  0.00  0.00    +0.000 A 
ATOM      2  N   UNL     1       0.254   0.605   0.000  0.00  0.00    +0.000 NA
ATOM      3  N   UNL     1       1.061   0.433   0.000  0.00  0.00    +0.000 NA
ATOM      4  C   UNL     1       1.147  -0.387   0.000  0.00  0.00    +0.000 A 
ATOM      5  O   UNL     1       0.394  -0.723   0.000  0.00  0.00    +0.000 OA
ENDROOT
BRANCH   4   6
ATOM      6  C   UNL     1       1.862  -0.800   0.000  0.00  0.00    +0.000 C 
ATOM      7  C   UNL     1       2.576  -1.212   0.000  0.00  0.00    +0.000 C 
ATOM      8  C   UNL     1       1.449  -1.514   0.000  0.00  0.00    +0.000 C 
ATOM      9  C   UNL     1       2.274  -0.085   0.000  0.00  0.00    +0.000 C 
ENDBRANCH   4   6
BRANCH   1  10
ATOM     10  C   UNL     1      -0.979  -0.196   0.000  0.00  0.00    +0.000 C 
ATOM     11  O   UNL     1      -1.314  -0.950   0.000  0.00  0.00    +0.000 OA
BRANCH  10  13
ATOM     12  N   UNL     1      -1.209   1.256   0.000  0.00  0.00    +0.000 NA
ATOM     13  C   UNL     1      -1.464   0.471   0.000  0.00  0.00    +0.000 C 
ATOM     14  C   UNL     1      -2.289   0.471   0.000  0.00  0.00    +0.000 C 
ATOM     15  C   UNL     1      -2.544   1.256   0.000  0.00  0.00    +0.000 C 
ATOM     16  C   UNL     1      -1.876   1.741   0.000  0.00  0.00    +0.000 C 
ENDBRANCH  10  13
ENDBRANCH   1  10
TORSDOF 3
