REMARK  Name = PTC
REMARK  5 active torsions:
REMARK  status: ('A' for Active; 'I' for Inactive)
REMARK    1  A    between atoms: C_1  and  C_16
REMARK    2  A    between atoms: C_5  and  C_6
REMARK    3  A    between atoms: C_8  and  C_9
REMARK    4  A    between atoms: C_14  and  O_15
REMARK    5  A    between atoms: O_15  and  P_17
REMARK                            x       y       z     vdW  Elec       q    Type
REMARK                         _______ _______ _______ _____ _____    ______ ____
ROOT
ATOM      1  C   UNL     1       0.576   0.042   0.000  0.00  0.00    +0.000 A 
ATOM      2  C   UNL     1       1.290   0.455   0.000  0.00  0.00    +0.000 A 
ATOM      3  C   UNL     1       0.576  -0.783   0.000  0.00  0.00    +0.000 A 
ATOM      4  C   UNL     1       2.004   0.042   0.000  0.00  0.00    +0.000 A 
ATOM      5  C   UNL     1       1.290  -1.195   0.000  0.00  0.00    +0.000 A 
ATOM      6  C   UNL     1       2.004  -0.783   0.000  0.00  0.00    +0.000 A 
ENDROOT
BRANCH   1   8
ATOM      7  C   UNL     1      -0.551   1.169   0.000  0.00  0.00    +0.000 C 
ATOM      8  C   UNL     1      -0.139   0.455   0.000  0.00  0.00    +0.000 C 
ATOM      9  C   UNL     1      -0.964   0.455   0.000  0.00  0.00    +0.000 C 
BRANCH   9  10
ATOM     10  C   UNL     1      -1.679   0.042   0.000  0.00  0.00    +0.000 C 
ATOM     11  O   UNL     1      -1.679  -0.783   0.000  0.00  0.00    +0.000 OA
ATOM     12  N   UNL     1      -2.393   0.455   0.000  0.00  0.00    +0.000 NA
ATOM     13  C   UNL     1      -3.107   0.042   0.000  0.00  0.00    +0.000 C 
ENDBRANCH   9  10
BRANCH   7  14
ATOM     14  C   UNL     1      -0.551   1.994   0.000  0.00  0.00    +0.000 C 
ATOM     15  O   UNL     1      -1.266   2.407   0.000  0.00  0.00    +0.000 OA
ATOM     16  O   UNL     1       0.163   2.407   0.000  0.00  0.00    +0.000 OA
ENDBRANCH   7  14
ENDBRANCH   1   8
BRANCH   6  17
ATOM     17  O   UNL     1       2.719  -1.195   0.000  0.00  0.00    +0.000 OA
BRANCH  17  18
ATOM     18  P   UNL     1       3.433  -0.783   0.000  0.00  0.00    +0.000 P 
ATOM     19  O   UNL     1       4.148  -0.370   0.000  0.00  0.00    +0.000 OA
ATOM     20  O   UNL     1       3.846  -1.497   0.000  0.00  0.00    +0.000 OA
ATOM     21  O   UNL     1       3.021  -0.068   0.000  0.00  0.00    +0.000 OA
ENDBRANCH  17  18
ENDBRANCH   6  17
TORSDOF 5
