REMARK  Name = PTU
REMARK  3 active torsions:
REMARK  status: ('A' for Active; 'I' for Inactive)
REMARK    1  A    between atoms: C_2  and  S_3
REMARK    2  A    between atoms: S_3  and  C_11
REMARK    3  A    between atoms: N_4  and  C_5
REMARK                            x       y       z     vdW  Elec       q    Type
REMARK                         _______ _______ _______ _____ _____    ______ ____
ROOT
ATOM      1  N   UNL     1      -0.380   1.075   0.000  0.00  0.00    +0.000 NA
ATOM      2  C   UNL     1       0.335   0.663   0.000  0.00  0.00    +0.000 C 
ATOM      3  N   UNL     1       0.335  -0.162   0.000  0.00  0.00    +0.000 NA
ENDROOT
BRANCH   3   4
ATOM      4  C   UNL     1      -0.380  -0.575   0.000  0.00  0.00    +0.000 A 
ATOM      5  C   UNL     1      -0.380  -1.400   0.000  0.00  0.00    +0.000 A 
ATOM      6  C   UNL     1      -1.094  -1.812   0.000  0.00  0.00    +0.000 A 
ATOM      7  C   UNL     1      -1.809  -1.400   0.000  0.00  0.00    +0.000 A 
ATOM      8  C   UNL     1      -1.809  -0.575   0.000  0.00  0.00    +0.000 A 
ATOM      9  C   UNL     1      -1.094  -0.162   0.000  0.00  0.00    +0.000 A 
ENDBRANCH   3   4
BRANCH   2  10
ATOM     10  S   UNL     1       1.049   1.075   0.000  0.00  0.00    +0.000 S 
BRANCH  10  11
ATOM     11  C   UNL     1       1.764   0.663   0.000  0.00  0.00    +0.000 C 
ATOM     12  C   UNL     1       2.478   1.075   0.000  0.00  0.00    +0.000 C 
ENDBRANCH  10  11
ENDBRANCH   2  10
TORSDOF 3
