REMARK  Name = PU0
REMARK  7 active torsions:
REMARK  status: ('A' for Active; 'I' for Inactive)
REMARK    1  A    between atoms: O_3  and  C_4
REMARK    2  A    between atoms: C_6  and  O_7
REMARK    3  A    between atoms: C_10  and  C_11
REMARK    4  A    between atoms: C_11  and  C_12
REMARK    5  A    between atoms: N_21  and  C_22
REMARK    6  A    between atoms: C_22  and  C_23
REMARK    7  A    between atoms: C_23  and  C_24
REMARK                            x       y       z     vdW  Elec       q    Type
REMARK                         _______ _______ _______ _____ _____    ______ ____
ROOT
ATOM      1  C   UNL     1       0.199  -0.097   0.000  0.00  0.00    +0.000 A 
ATOM      2  N   UNL     1       0.684   0.571   0.000  0.00  0.00    +0.000 NA
ATOM      3  C   UNL     1       1.469   0.316   0.000  0.00  0.00    +0.000 A 
ATOM      4  C   UNL     1       2.183   0.728   0.000  0.00  0.00    +0.000 A 
ATOM      5  N   UNL     1       2.183   1.553   0.000  0.00  0.00    +0.000 NA
ATOM      6  C   UNL     1       1.469  -0.509   0.000  0.00  0.00    +0.000 A 
ATOM      7  N   UNL     1       2.183  -0.922   0.000  0.00  0.00    +0.000 NA
ATOM      8  C   UNL     1       2.898  -0.509   0.000  0.00  0.00    +0.000 A 
ATOM      9  N   UNL     1       2.898   0.316   0.000  0.00  0.00    +0.000 NA
ATOM     10  N   UNL     1       0.684  -0.764   0.000  0.00  0.00    +0.000 N 
ATOM     11  F   UNL     1       3.612  -0.922   0.000  0.00  0.00    +0.000 F 
ENDROOT
BRANCH   1  12
ATOM     12  C   UNL     1      -0.626  -0.097   0.000  0.00  0.00    +0.000 C 
BRANCH  12  18
ATOM     13  C   UNL     1      -1.038   2.047   0.000  0.00  0.00    +0.000 A 
ATOM     14  C   UNL     1      -0.626   1.332   0.000  0.00  0.00    +0.000 A 
ATOM     15  C   UNL     1      -1.863   2.047   0.000  0.00  0.00    +0.000 A 
ATOM     16  C   UNL     1      -2.276   1.332   0.000  0.00  0.00    +0.000 A 
ATOM     17  C   UNL     1      -1.863   0.618   0.000  0.00  0.00    +0.000 A 
ATOM     18  C   UNL     1      -1.038   0.618   0.000  0.00  0.00    +0.000 A 
BRANCH  16  19
ATOM     19  O   UNL     1      -3.101   1.332   0.000  0.00  0.00    +0.000 OA
ATOM     20  C   UNL     1      -3.513   2.047   0.000  0.00  0.00    +0.000 C 
ENDBRANCH  16  19
BRANCH  14  22
ATOM     21  C   UNL     1       0.612   2.047   0.000  0.00  0.00    +0.000 C 
ATOM     22  O   UNL     1       0.199   1.332   0.000  0.00  0.00    +0.000 OA
ENDBRANCH  14  22
ENDBRANCH  12  18
ENDBRANCH   1  12
BRANCH  10  23
ATOM     23  C   UNL     1       0.429  -1.549   0.000  0.00  0.00    +0.000 C 
BRANCH  23  24
ATOM     24  C   UNL     1       0.981  -2.162   0.000  0.00  0.00    +0.000 C 
BRANCH  24  25
ATOM     25  C   UNL     1       0.726  -2.947   0.000  0.00  0.00    +0.000 C 
ATOM     26  C   UNL     1       1.278  -3.560   0.000  0.00  0.00    +0.000 C 
ENDBRANCH  24  25
ENDBRANCH  23  24
ENDBRANCH  10  23
TORSDOF 7
