REMARK  Name = PU1
REMARK  9 active torsions:
REMARK  status: ('A' for Active; 'I' for Inactive)
REMARK    1  A    between atoms: C_3  and  O_4
REMARK    2  A    between atoms: C_6  and  O_7
REMARK    3  A    between atoms: C_9  and  O_10
REMARK    4  A    between atoms: C_13  and  C_14
REMARK    5  A    between atoms: C_14  and  C_15
REMARK    6  A    between atoms: N_24  and  C_25
REMARK    7  A    between atoms: C_25  and  C_26
REMARK    8  A    between atoms: C_26  and  C_27
REMARK    9  A    between atoms: C_27  and  C_28
REMARK                            x       y       z     vdW  Elec       q    Type
REMARK                         _______ _______ _______ _____ _____    ______ ____
ROOT
ATOM      1  C   UNL     1       0.818   0.194   0.000  0.00  0.00    +0.000 A 
ATOM      2  N   UNL     1       0.266   0.807   0.000  0.00  0.00    +0.000 NA
ATOM      3  C   UNL     1       0.679   1.521   0.000  0.00  0.00    +0.000 A 
ATOM      4  C   UNL     1       0.424   2.306   0.000  0.00  0.00    +0.000 A 
ATOM      5  N   UNL     1      -0.383   2.478   0.000  0.00  0.00    +0.000 NA
ATOM      6  C   UNL     1       1.486   1.350   0.000  0.00  0.00    +0.000 A 
ATOM      7  N   UNL     1       2.038   1.963   0.000  0.00  0.00    +0.000 NA
ATOM      8  C   UNL     1       1.783   2.748   0.000  0.00  0.00    +0.000 A 
ATOM      9  N   UNL     1       0.976   2.919   0.000  0.00  0.00    +0.000 NA
ATOM     10  N   UNL     1       1.572   0.529   0.000  0.00  0.00    +0.000 N 
ATOM     11  F   UNL     1       2.335   3.361   0.000  0.00  0.00    +0.000 F 
ENDROOT
BRANCH   1  12
ATOM     12  C   UNL     1       0.647  -0.613   0.000  0.00  0.00    +0.000 C 
BRANCH  12  19
ATOM     13 CL   UNL     1       0.304  -2.227   0.000  0.00  0.00    +0.000 Cl
ATOM     14  C   UNL     1      -0.309  -1.675   0.000  0.00  0.00    +0.000 A 
ATOM     15  C   UNL     1      -1.094  -1.930   0.000  0.00  0.00    +0.000 A 
ATOM     16  C   UNL     1      -1.707  -1.378   0.000  0.00  0.00    +0.000 A 
ATOM     17  C   UNL     1      -1.535  -0.571   0.000  0.00  0.00    +0.000 A 
ATOM     18  C   UNL     1      -0.751  -0.316   0.000  0.00  0.00    +0.000 A 
ATOM     19  C   UNL     1      -0.138  -0.868   0.000  0.00  0.00    +0.000 A 
BRANCH  16  20
ATOM     20  O   UNL     1      -2.492  -1.633   0.000  0.00  0.00    +0.000 OA
ATOM     21  C   UNL     1      -3.105  -1.081   0.000  0.00  0.00    +0.000 C 
ENDBRANCH  16  20
BRANCH  17  22
ATOM     22  O   UNL     1      -2.148  -0.019   0.000  0.00  0.00    +0.000 OA
ATOM     23  C   UNL     1      -1.977   0.788   0.000  0.00  0.00    +0.000 C 
ENDBRANCH  17  22
BRANCH  15  24
ATOM     24  O   UNL     1      -1.265  -2.737   0.000  0.00  0.00    +0.000 OA
ATOM     25  C   UNL     1      -2.050  -2.992   0.000  0.00  0.00    +0.000 C 
ENDBRANCH  15  24
ENDBRANCH  12  19
ENDBRANCH   1  12
BRANCH  10  26
ATOM     26  C   UNL     1       2.287   0.117   0.000  0.00  0.00    +0.000 C 
BRANCH  26  27
ATOM     27  C   UNL     1       3.001   0.529   0.000  0.00  0.00    +0.000 C 
BRANCH  27  28
ATOM     28  C   UNL     1       3.716   0.117   0.000  0.00  0.00    +0.000 C 
BRANCH  28  29
ATOM     29  C   UNL     1       4.430   0.529   0.000  0.00  0.00    +0.000 C 
ATOM     30  C   UNL     1       5.144   0.942   0.000  0.00  0.00    +0.000 C 
ENDBRANCH  28  29
ENDBRANCH  27  28
ENDBRANCH  26  27
ENDBRANCH  10  26
TORSDOF 9
