REMARK  Name = PU2
REMARK  4 active torsions:
REMARK  status: ('A' for Active; 'I' for Inactive)
REMARK    1  A    between atoms: C_6  and  C_12
REMARK    2  A    between atoms: C_6  and  C_14
REMARK    3  A    between atoms: C_13  and  O_21
REMARK    4  A    between atoms: C_18  and  O_20
REMARK                            x       y       z     vdW  Elec       q    Type
REMARK                         _______ _______ _______ _____ _____    ______ ____
ROOT
ATOM      1  C   UNL     1      -0.655  -0.653   0.000  0.00  0.00    +0.000 C 
ENDROOT
BRANCH   1  11
ATOM      2  N   UNL     1       0.655   0.014   0.000  0.00  0.00    +0.000 NA
ATOM      3  C   UNL     1       1.440  -0.241   0.000  0.00  0.00    +0.000 A 
ATOM      4  N   UNL     1       2.154   0.172   0.000  0.00  0.00    +0.000 NA
ATOM      5  C   UNL     1       2.868  -0.241   0.000  0.00  0.00    +0.000 A 
ATOM      6  N   UNL     1       2.868  -1.066   0.000  0.00  0.00    +0.000 NA
ATOM      7  C   UNL     1       1.440  -1.066   0.000  0.00  0.00    +0.000 A 
ATOM      8  C   UNL     1       2.154  -1.478   0.000  0.00  0.00    +0.000 A 
ATOM      9  N   UNL     1       2.154  -2.303   0.000  0.00  0.00    +0.000 NA
ATOM     10  N   UNL     1       0.655  -1.321   0.000  0.00  0.00    +0.000 NA
ATOM     11  C   UNL     1       0.170  -0.653   0.000  0.00  0.00    +0.000 A 
ATOM     12  F   UNL     1       3.583   0.172   0.000  0.00  0.00    +0.000 F 
ENDBRANCH   1  11
BRANCH   1  14
ATOM     13  C   UNL     1      -0.655   0.775   0.000  0.00  0.00    +0.000 A 
ATOM     14  C   UNL     1      -1.068   0.061   0.000  0.00  0.00    +0.000 A 
ATOM     15  C   UNL     1      -1.893   0.061   0.000  0.00  0.00    +0.000 A 
ATOM     16  C   UNL     1      -1.068   1.490   0.000  0.00  0.00    +0.000 A 
ATOM     17  C   UNL     1      -1.893   1.490   0.000  0.00  0.00    +0.000 A 
ATOM     18  C   UNL     1      -2.305   0.775   0.000  0.00  0.00    +0.000 A 
BRANCH  13  20
ATOM     19  C   UNL     1       0.582   1.490   0.000  0.00  0.00    +0.000 C 
ATOM     20  O   UNL     1       0.170   0.775   0.000  0.00  0.00    +0.000 OA
ENDBRANCH  13  20
BRANCH  18  21
ATOM     21  O   UNL     1      -3.130   0.775   0.000  0.00  0.00    +0.000 OA
ATOM     22  C   UNL     1      -3.543   0.061   0.000  0.00  0.00    +0.000 C 
ENDBRANCH  18  21
ENDBRANCH   1  14
TORSDOF 4
