REMARK  Name = PU3
REMARK  8 active torsions:
REMARK  status: ('A' for Active; 'I' for Inactive)
REMARK    1  A    between atoms: O_2  and  C_3
REMARK    2  A    between atoms: C_5  and  O_6
REMARK    3  A    between atoms: C_8  and  O_9
REMARK    4  A    between atoms: C_12  and  C_13
REMARK    5  A    between atoms: C_13  and  C_14
REMARK    6  A    between atoms: N_23  and  C_24
REMARK    7  A    between atoms: C_24  and  C_25
REMARK    8  A    between atoms: C_25  and  C_26
REMARK                            x       y       z     vdW  Elec       q    Type
REMARK                         _______ _______ _______ _____ _____    ______ ____
ROOT
ATOM      1  C   UNL     1       0.755  -0.197   0.000  0.00  0.00    +0.000 A 
ATOM      2  N   UNL     1       1.240   0.470   0.000  0.00  0.00    +0.000 NA
ATOM      3  C   UNL     1       2.025   0.215   0.000  0.00  0.00    +0.000 A 
ATOM      4  C   UNL     1       2.740   0.628   0.000  0.00  0.00    +0.000 A 
ATOM      5  N   UNL     1       2.740   1.453   0.000  0.00  0.00    +0.000 NA
ATOM      6  C   UNL     1       2.025  -0.610   0.000  0.00  0.00    +0.000 A 
ATOM      7  N   UNL     1       2.740  -1.022   0.000  0.00  0.00    +0.000 NA
ATOM      8  C   UNL     1       3.454  -0.610   0.000  0.00  0.00    +0.000 A 
ATOM      9  N   UNL     1       3.454   0.215   0.000  0.00  0.00    +0.000 NA
ATOM     10  N   UNL     1       1.240  -0.865   0.000  0.00  0.00    +0.000 N 
ENDROOT
BRANCH  10  11
ATOM     11  C   UNL     1       0.985  -1.649   0.000  0.00  0.00    +0.000 C 
BRANCH  11  12
ATOM     12  C   UNL     1       1.538  -2.263   0.000  0.00  0.00    +0.000 C 
BRANCH  12  13
ATOM     13  C   UNL     1       1.282  -3.047   0.000  0.00  0.00    +0.000 C 
ATOM     14  C   UNL     1       1.835  -3.660   0.000  0.00  0.00    +0.000 C 
ENDBRANCH  12  13
ENDBRANCH  11  12
ENDBRANCH  10  11
BRANCH   1  15
ATOM     15  C   UNL     1      -0.070  -0.197   0.000  0.00  0.00    +0.000 C 
BRANCH  15  21
ATOM     16  C   UNL     1      -0.482   1.946   0.000  0.00  0.00    +0.000 A 
ATOM     17  C   UNL     1      -0.070   1.232   0.000  0.00  0.00    +0.000 A 
ATOM     18  C   UNL     1      -1.307   1.946   0.000  0.00  0.00    +0.000 A 
ATOM     19  C   UNL     1      -1.720   1.232   0.000  0.00  0.00    +0.000 A 
ATOM     20  C   UNL     1      -1.307   0.517   0.000  0.00  0.00    +0.000 A 
ATOM     21  C   UNL     1      -0.482   0.517   0.000  0.00  0.00    +0.000 A 
BRANCH  18  22
ATOM     22  O   UNL     1      -1.720   2.660   0.000  0.00  0.00    +0.000 OA
ATOM     23  C   UNL     1      -2.545   2.660   0.000  0.00  0.00    +0.000 C 
ENDBRANCH  18  22
BRANCH  19  24
ATOM     24  O   UNL     1      -2.545   1.232   0.000  0.00  0.00    +0.000 OA
ATOM     25  C   UNL     1      -2.957   0.517   0.000  0.00  0.00    +0.000 C 
ENDBRANCH  19  24
BRANCH  16  27
ATOM     26  C   UNL     1      -0.482   3.375   0.000  0.00  0.00    +0.000 C 
ATOM     27  O   UNL     1      -0.070   2.660   0.000  0.00  0.00    +0.000 OA
ENDBRANCH  16  27
ENDBRANCH  15  21
ENDBRANCH   1  15
TORSDOF 8
