REMARK  Name = PU4
REMARK  6 active torsions:
REMARK  status: ('A' for Active; 'I' for Inactive)
REMARK    1  A    between atoms: C_2  and  C_3
REMARK    2  A    between atoms: C_3  and  C_4
REMARK    3  A    between atoms: C_4  and  N_5
REMARK    4  A    between atoms: C_14  and  C_15
REMARK    5  A    between atoms: C_15  and  C_16
REMARK    6  A    between atoms: C_21  and  O_22
REMARK                            x       y       z     vdW  Elec       q    Type
REMARK                         _______ _______ _______ _____ _____    ______ ____
ROOT
ATOM      1  N   UNL     1       0.793   0.726   0.000  0.00  0.00    +0.000 N 
ATOM      2  C   UNL     1       1.578   0.471   0.000  0.00  0.00    +0.000 A 
ATOM      3  N   UNL     1       2.293   0.883   0.000  0.00  0.00    +0.000 NA
ATOM      4  C   UNL     1       3.007   0.471   0.000  0.00  0.00    +0.000 A 
ATOM      5  N   UNL     1       3.007  -0.354   0.000  0.00  0.00    +0.000 NA
ATOM      6  C   UNL     1       1.578  -0.354   0.000  0.00  0.00    +0.000 A 
ATOM      7  C   UNL     1       2.293  -0.767   0.000  0.00  0.00    +0.000 A 
ATOM      8  N   UNL     1       2.293  -1.592   0.000  0.00  0.00    +0.000 NA
ATOM      9  N   UNL     1       0.793  -0.609   0.000  0.00  0.00    +0.000 NA
ATOM     10  C   UNL     1       0.309   0.058   0.000  0.00  0.00    +0.000 A 
ENDROOT
BRANCH   1  11
ATOM     11  C   UNL     1       0.539   1.510   0.000  0.00  0.00    +0.000 C 
BRANCH  11  12
ATOM     12  C   UNL     1       1.091   2.123   0.000  0.00  0.00    +0.000 C 
BRANCH  12  14
ATOM     13  C   UNL     1       1.388   3.521   0.000  0.00  0.00    +0.000 C 
ATOM     14  C   UNL     1       0.836   2.908   0.000  0.00  0.00    +0.000 C 
ENDBRANCH  12  14
ENDBRANCH  11  12
ENDBRANCH   1  11
BRANCH  10  15
ATOM     15  C   UNL     1      -0.516   0.058   0.000  0.00  0.00    +0.000 C 
BRANCH  15  16
ATOM     16  C   UNL     1      -0.929  -0.656   0.000  0.00  0.00    +0.000 A 
ATOM     17  C   UNL     1      -0.516  -1.371   0.000  0.00  0.00    +0.000 A 
ATOM     18  C   UNL     1      -0.929  -2.085   0.000  0.00  0.00    +0.000 A 
ATOM     19  C   UNL     1      -1.754  -0.656   0.000  0.00  0.00    +0.000 A 
ATOM     20  C   UNL     1      -2.166  -1.371   0.000  0.00  0.00    +0.000 A 
ATOM     21  C   UNL     1      -1.754  -2.085   0.000  0.00  0.00    +0.000 A 
BRANCH  21  22
ATOM     22  O   UNL     1      -2.166  -2.800   0.000  0.00  0.00    +0.000 OA
ATOM     23  C   UNL     1      -1.754  -3.514   0.000  0.00  0.00    +0.000 C 
ENDBRANCH  21  22
ENDBRANCH  15  16
ENDBRANCH  10  15
TORSDOF 6
