REMARK  Name = PU5
REMARK  6 active torsions:
REMARK  status: ('A' for Active; 'I' for Inactive)
REMARK    1  A    between atoms: C_2  and  C_3
REMARK    2  A    between atoms: C_3  and  C_4
REMARK    3  A    between atoms: C_4  and  N_5
REMARK    4  A    between atoms: C_9  and  C_15
REMARK    5  A    between atoms: C_9  and  C_17
REMARK    6  A    between atoms: C_21  and  O_22
REMARK                            x       y       z     vdW  Elec       q    Type
REMARK                         _______ _______ _______ _____ _____    ______ ____
ROOT
ATOM      1  N   UNL     1       0.887  -0.372   0.000  0.00  0.00    +0.000 N 
ATOM      2  C   UNL     1       1.672  -0.627   0.000  0.00  0.00    +0.000 A 
ATOM      3  N   UNL     1       2.386  -0.215   0.000  0.00  0.00    +0.000 NA
ATOM      4  C   UNL     1       3.101  -0.627   0.000  0.00  0.00    +0.000 A 
ATOM      5  N   UNL     1       3.101  -1.452   0.000  0.00  0.00    +0.000 NA
ATOM      6  C   UNL     1       1.672  -1.452   0.000  0.00  0.00    +0.000 A 
ATOM      7  C   UNL     1       2.386  -1.865   0.000  0.00  0.00    +0.000 A 
ATOM      8  N   UNL     1       2.386  -2.690   0.000  0.00  0.00    +0.000 NA
ATOM      9  N   UNL     1       0.887  -1.707   0.000  0.00  0.00    +0.000 NA
ATOM     10  C   UNL     1       0.402  -1.040   0.000  0.00  0.00    +0.000 A 
ENDROOT
BRANCH   1  11
ATOM     11  C   UNL     1       0.632   0.412   0.000  0.00  0.00    +0.000 C 
BRANCH  11  12
ATOM     12  C   UNL     1       1.184   1.026   0.000  0.00  0.00    +0.000 C 
BRANCH  12  14
ATOM     13  C   UNL     1       1.481   2.423   0.000  0.00  0.00    +0.000 C 
ATOM     14  C   UNL     1       0.929   1.810   0.000  0.00  0.00    +0.000 C 
ENDBRANCH  12  14
ENDBRANCH  11  12
ENDBRANCH   1  11
BRANCH  10  15
ATOM     15  C   UNL     1      -0.423  -1.040   0.000  0.00  0.00    +0.000 C 
BRANCH  15  17
ATOM     16  C   UNL     1      -0.423   0.389   0.000  0.00  0.00    +0.000 A 
ATOM     17  C   UNL     1      -0.835  -0.325   0.000  0.00  0.00    +0.000 A 
ATOM     18  C   UNL     1      -1.660  -0.325   0.000  0.00  0.00    +0.000 A 
ATOM     19  C   UNL     1      -0.835   1.104   0.000  0.00  0.00    +0.000 A 
ATOM     20  C   UNL     1      -1.660   1.104   0.000  0.00  0.00    +0.000 A 
ATOM     21  C   UNL     1      -2.073   0.389   0.000  0.00  0.00    +0.000 A 
BRANCH  21  22
ATOM     22  O   UNL     1      -2.898   0.389   0.000  0.00  0.00    +0.000 OA
ATOM     23  C   UNL     1      -3.310  -0.325   0.000  0.00  0.00    +0.000 C 
ENDBRANCH  21  22
ENDBRANCH  15  17
ENDBRANCH  10  15
TORSDOF 6
