REMARK  Name = PU6
REMARK  5 active torsions:
REMARK  status: ('A' for Active; 'I' for Inactive)
REMARK    1  A    between atoms: C_2  and  C_3
REMARK    2  A    between atoms: C_3  and  C_4
REMARK    3  A    between atoms: C_4  and  N_5
REMARK    4  A    between atoms: C_14  and  C_15
REMARK    5  A    between atoms: C_15  and  C_16
REMARK                            x       y       z     vdW  Elec       q    Type
REMARK                         _______ _______ _______ _____ _____    ______ ____
ROOT
ATOM      1  N   UNL     1       1.060  -0.154   0.000  0.00  0.00    +0.000 N 
ATOM      2  C   UNL     1       1.867   0.018   0.000  0.00  0.00    +0.000 A 
ATOM      3  N   UNL     1       2.279   0.732   0.000  0.00  0.00    +0.000 NA
ATOM      4  C   UNL     1       3.104   0.732   0.000  0.00  0.00    +0.000 A 
ATOM      5  N   UNL     1       3.517   0.018   0.000  0.00  0.00    +0.000 NA
ATOM      6  C   UNL     1       2.279  -0.697   0.000  0.00  0.00    +0.000 A 
ATOM      7  C   UNL     1       3.104  -0.697   0.000  0.00  0.00    +0.000 A 
ATOM      8  N   UNL     1       3.517  -1.411   0.000  0.00  0.00    +0.000 NA
ATOM      9  N   UNL     1       1.727  -1.310   0.000  0.00  0.00    +0.000 NA
ATOM     10  C   UNL     1       0.974  -0.975   0.000  0.00  0.00    +0.000 A 
ENDROOT
BRANCH   1  11
ATOM     11  C   UNL     1       0.447   0.398   0.000  0.00  0.00    +0.000 C 
BRANCH  11  12
ATOM     12  C   UNL     1       0.618   1.205   0.000  0.00  0.00    +0.000 C 
BRANCH  12  14
ATOM     13  C   UNL     1       0.177   2.564   0.000  0.00  0.00    +0.000 C 
ATOM     14  C   UNL     1       0.005   1.757   0.000  0.00  0.00    +0.000 C 
ENDBRANCH  12  14
ENDBRANCH  11  12
ENDBRANCH   1  11
BRANCH  10  15
ATOM     15  C   UNL     1       0.259  -1.387   0.000  0.00  0.00    +0.000 C 
BRANCH  15  16
ATOM     16  C   UNL     1      -0.455  -0.975   0.000  0.00  0.00    +0.000 A 
ATOM     17  C   UNL     1      -1.170  -1.387   0.000  0.00  0.00    +0.000 A 
ATOM     18  C   UNL     1      -1.884  -0.975   0.000  0.00  0.00    +0.000 A 
ATOM     19  C   UNL     1      -0.455  -0.150   0.000  0.00  0.00    +0.000 A 
ATOM     20  O   UNL     1      -2.669  -1.230   0.000  0.00  0.00    +0.000 OA
ATOM     21  C   UNL     1      -1.170   0.263   0.000  0.00  0.00    +0.000 A 
ATOM     22  C   UNL     1      -1.884  -0.150   0.000  0.00  0.00    +0.000 A 
ATOM     23  O   UNL     1      -2.669   0.105   0.000  0.00  0.00    +0.000 OA
ATOM     24  C   UNL     1      -3.154  -0.562   0.000  0.00  0.00    +0.000 C 
ENDBRANCH  15  16
ENDBRANCH  10  15
TORSDOF 5
