REMARK  Name = PU7
REMARK  7 active torsions:
REMARK  status: ('A' for Active; 'I' for Inactive)
REMARK    1  A    between atoms: O_3  and  C_4
REMARK    2  A    between atoms: C_6  and  O_7
REMARK    3  A    between atoms: C_10  and  C_11
REMARK    4  A    between atoms: C_11  and  C_12
REMARK    5  A    between atoms: N_21  and  C_22
REMARK    6  A    between atoms: C_22  and  C_23
REMARK    7  A    between atoms: C_23  and  C_24
REMARK                            x       y       z     vdW  Elec       q    Type
REMARK                         _______ _______ _______ _____ _____    ______ ____
ROOT
ATOM      1  C   UNL     1       0.215  -0.073   0.000  0.00  0.00    +0.000 A 
ATOM      2  N   UNL     1       0.700   0.594   0.000  0.00  0.00    +0.000 NA
ATOM      3  C   UNL     1       1.485   0.339   0.000  0.00  0.00    +0.000 A 
ATOM      4  C   UNL     1       2.199   0.752   0.000  0.00  0.00    +0.000 A 
ATOM      5  N   UNL     1       2.199   1.577   0.000  0.00  0.00    +0.000 NA
ATOM      6  C   UNL     1       1.485  -0.486   0.000  0.00  0.00    +0.000 A 
ATOM      7  N   UNL     1       2.199  -0.898   0.000  0.00  0.00    +0.000 NA
ATOM      8  C   UNL     1       2.913  -0.486   0.000  0.00  0.00    +0.000 A 
ATOM      9  N   UNL     1       2.913   0.339   0.000  0.00  0.00    +0.000 NA
ATOM     10  N   UNL     1       0.700  -0.741   0.000  0.00  0.00    +0.000 N 
ENDROOT
BRANCH   1  11
ATOM     11  C   UNL     1      -0.610  -0.073   0.000  0.00  0.00    +0.000 C 
BRANCH  11  17
ATOM     12  C   UNL     1      -1.022   2.070   0.000  0.00  0.00    +0.000 A 
ATOM     13  C   UNL     1      -0.610   1.356   0.000  0.00  0.00    +0.000 A 
ATOM     14  C   UNL     1      -1.847   2.070   0.000  0.00  0.00    +0.000 A 
ATOM     15  C   UNL     1      -2.260   1.356   0.000  0.00  0.00    +0.000 A 
ATOM     16  C   UNL     1      -1.847   0.641   0.000  0.00  0.00    +0.000 A 
ATOM     17  C   UNL     1      -1.022   0.641   0.000  0.00  0.00    +0.000 A 
BRANCH  15  18
ATOM     18  O   UNL     1      -3.085   1.356   0.000  0.00  0.00    +0.000 OA
ATOM     19  C   UNL     1      -3.497   2.070   0.000  0.00  0.00    +0.000 C 
ENDBRANCH  15  18
BRANCH  13  21
ATOM     20  C   UNL     1       0.628   2.070   0.000  0.00  0.00    +0.000 C 
ATOM     21  O   UNL     1       0.215   1.356   0.000  0.00  0.00    +0.000 OA
ENDBRANCH  13  21
ENDBRANCH  11  17
ENDBRANCH   1  11
BRANCH  10  22
ATOM     22  C   UNL     1       0.445  -1.525   0.000  0.00  0.00    +0.000 C 
BRANCH  22  23
ATOM     23  C   UNL     1       0.997  -2.138   0.000  0.00  0.00    +0.000 C 
BRANCH  23  24
ATOM     24  C   UNL     1       0.742  -2.923   0.000  0.00  0.00    +0.000 C 
ATOM     25  C   UNL     1       1.294  -3.536   0.000  0.00  0.00    +0.000 C 
ENDBRANCH  23  24
ENDBRANCH  22  23
ENDBRANCH  10  22
TORSDOF 7
