REMARK  Name = PU8
REMARK  8 active torsions:
REMARK  status: ('A' for Active; 'I' for Inactive)
REMARK    1  A    between atoms: O_2  and  C_3
REMARK    2  A    between atoms: C_5  and  O_6
REMARK    3  A    between atoms: C_8  and  O_9
REMARK    4  A    between atoms: C_12  and  C_13
REMARK    5  A    between atoms: C_13  and  C_14
REMARK    6  A    between atoms: N_23  and  C_24
REMARK    7  A    between atoms: C_24  and  C_25
REMARK    8  A    between atoms: C_25  and  C_26
REMARK                            x       y       z     vdW  Elec       q    Type
REMARK                         _______ _______ _______ _____ _____    ______ ____
ROOT
ATOM      1  C   UNL     1      -0.688  -0.340   0.000  0.00  0.00    +0.000 C 
ENDROOT
BRANCH   1   2
ATOM      2  C   UNL     1       0.137  -0.340   0.000  0.00  0.00    +0.000 A 
ATOM      3  N   UNL     1       0.622   0.327   0.000  0.00  0.00    +0.000 NA
ATOM      4  C   UNL     1       1.407   0.072   0.000  0.00  0.00    +0.000 A 
ATOM      5  C   UNL     1       2.121   0.485   0.000  0.00  0.00    +0.000 A 
ATOM      6  N   UNL     1       2.121   1.310   0.000  0.00  0.00    +0.000 NA
ATOM      7  C   UNL     1       1.407  -0.753   0.000  0.00  0.00    +0.000 A 
ATOM      8  N   UNL     1       2.121  -1.165   0.000  0.00  0.00    +0.000 NA
ATOM      9  C   UNL     1       2.836  -0.753   0.000  0.00  0.00    +0.000 A 
ATOM     10  N   UNL     1       2.836   0.072   0.000  0.00  0.00    +0.000 NA
ATOM     11  N   UNL     1       0.622  -1.008   0.000  0.00  0.00    +0.000 N 
BRANCH  11  12
ATOM     12  C   UNL     1       0.367  -1.792   0.000  0.00  0.00    +0.000 C 
BRANCH  12  13
ATOM     13  C   UNL     1       0.919  -2.405   0.000  0.00  0.00    +0.000 C 
BRANCH  13  14
ATOM     14  C   UNL     1       0.664  -3.190   0.000  0.00  0.00    +0.000 C 
ATOM     15  C   UNL     1       1.216  -3.803   0.000  0.00  0.00    +0.000 C 
ENDBRANCH  13  14
ENDBRANCH  12  13
ENDBRANCH  11  12
ENDBRANCH   1   2
BRANCH   1  21
ATOM     16  C   UNL     1      -1.100   1.803   0.000  0.00  0.00    +0.000 A 
ATOM     17  C   UNL     1      -0.688   1.089   0.000  0.00  0.00    +0.000 A 
ATOM     18  C   UNL     1      -1.925   1.803   0.000  0.00  0.00    +0.000 A 
ATOM     19  C   UNL     1      -2.338   1.089   0.000  0.00  0.00    +0.000 A 
ATOM     20  C   UNL     1      -1.925   0.374   0.000  0.00  0.00    +0.000 A 
ATOM     21  C   UNL     1      -1.100   0.374   0.000  0.00  0.00    +0.000 A 
ATOM     22 CL   UNL     1       0.137   1.089   0.000  0.00  0.00    +0.000 Cl
BRANCH  18  23
ATOM     23  O   UNL     1      -2.338   2.518   0.000  0.00  0.00    +0.000 OA
ATOM     24  C   UNL     1      -3.163   2.518   0.000  0.00  0.00    +0.000 C 
ENDBRANCH  18  23
BRANCH  19  25
ATOM     25  O   UNL     1      -3.163   1.089   0.000  0.00  0.00    +0.000 OA
ATOM     26  C   UNL     1      -3.575   0.374   0.000  0.00  0.00    +0.000 C 
ENDBRANCH  19  25
BRANCH  16  28
ATOM     27  C   UNL     1      -1.100   3.232   0.000  0.00  0.00    +0.000 C 
ATOM     28  O   UNL     1      -0.688   2.518   0.000  0.00  0.00    +0.000 OA
ENDBRANCH  16  28
ENDBRANCH   1  21
TORSDOF 8
