REMARK  Name = PU9
REMARK  9 active torsions:
REMARK  status: ('A' for Active; 'I' for Inactive)
REMARK    1  A    between atoms: C_3  and  O_4
REMARK    2  A    between atoms: C_6  and  O_7
REMARK    3  A    between atoms: C_9  and  O_10
REMARK    4  A    between atoms: C_13  and  C_14
REMARK    5  A    between atoms: C_14  and  C_15
REMARK    6  A    between atoms: N_24  and  C_25
REMARK    7  A    between atoms: C_25  and  C_26
REMARK    8  A    between atoms: C_26  and  C_27
REMARK    9  A    between atoms: C_27  and  C_28
REMARK                            x       y       z     vdW  Elec       q    Type
REMARK                         _______ _______ _______ _____ _____    ______ ____
ROOT
ATOM      1  C   UNL     1       0.779   0.236   0.000  0.00  0.00    +0.000 A 
ATOM      2  N   UNL     1       0.227   0.849   0.000  0.00  0.00    +0.000 NA
ATOM      3  C   UNL     1       0.640   1.563   0.000  0.00  0.00    +0.000 A 
ATOM      4  C   UNL     1       0.385   2.348   0.000  0.00  0.00    +0.000 A 
ATOM      5  N   UNL     1      -0.422   2.519   0.000  0.00  0.00    +0.000 NA
ATOM      6  C   UNL     1       1.447   1.392   0.000  0.00  0.00    +0.000 A 
ATOM      7  N   UNL     1       1.999   2.005   0.000  0.00  0.00    +0.000 NA
ATOM      8  C   UNL     1       1.744   2.789   0.000  0.00  0.00    +0.000 A 
ATOM      9  N   UNL     1       0.937   2.961   0.000  0.00  0.00    +0.000 NA
ATOM     10  N   UNL     1       1.533   0.571   0.000  0.00  0.00    +0.000 N 
ENDROOT
BRANCH   1  11
ATOM     11  C   UNL     1       0.608  -0.571   0.000  0.00  0.00    +0.000 C 
BRANCH  11  18
ATOM     12 CL   UNL     1       0.265  -2.185   0.000  0.00  0.00    +0.000 Cl
ATOM     13  C   UNL     1      -0.348  -1.633   0.000  0.00  0.00    +0.000 A 
ATOM     14  C   UNL     1      -1.133  -1.888   0.000  0.00  0.00    +0.000 A 
ATOM     15  C   UNL     1      -1.746  -1.336   0.000  0.00  0.00    +0.000 A 
ATOM     16  C   UNL     1      -1.575  -0.529   0.000  0.00  0.00    +0.000 A 
ATOM     17  C   UNL     1      -0.790  -0.274   0.000  0.00  0.00    +0.000 A 
ATOM     18  C   UNL     1      -0.177  -0.826   0.000  0.00  0.00    +0.000 A 
BRANCH  15  19
ATOM     19  O   UNL     1      -2.531  -1.591   0.000  0.00  0.00    +0.000 OA
ATOM     20  C   UNL     1      -3.144  -1.039   0.000  0.00  0.00    +0.000 C 
ENDBRANCH  15  19
BRANCH  16  21
ATOM     21  O   UNL     1      -2.188   0.023   0.000  0.00  0.00    +0.000 OA
ATOM     22  C   UNL     1      -2.016   0.830   0.000  0.00  0.00    +0.000 C 
ENDBRANCH  16  21
BRANCH  14  23
ATOM     23  O   UNL     1      -1.304  -2.695   0.000  0.00  0.00    +0.000 OA
ATOM     24  C   UNL     1      -2.089  -2.950   0.000  0.00  0.00    +0.000 C 
ENDBRANCH  14  23
ENDBRANCH  11  18
ENDBRANCH   1  11
BRANCH  10  25
ATOM     25  C   UNL     1       2.248   0.159   0.000  0.00  0.00    +0.000 C 
BRANCH  25  26
ATOM     26  C   UNL     1       2.962   0.571   0.000  0.00  0.00    +0.000 C 
BRANCH  26  27
ATOM     27  C   UNL     1       3.676   0.159   0.000  0.00  0.00    +0.000 C 
BRANCH  27  28
ATOM     28  C   UNL     1       4.391   0.571   0.000  0.00  0.00    +0.000 C 
ATOM     29  C   UNL     1       5.105   0.984   0.000  0.00  0.00    +0.000 C 
ENDBRANCH  27  28
ENDBRANCH  26  27
ENDBRANCH  25  26
ENDBRANCH  10  25
TORSDOF 9
