REMARK  Name = PUX
REMARK  5 active torsions:
REMARK  status: ('A' for Active; 'I' for Inactive)
REMARK    1  A    between atoms: C_2  and  C_3
REMARK    2  A    between atoms: C_3  and  C_4
REMARK    3  A    between atoms: C_4  and  N_5
REMARK    4  A    between atoms: C_14  and  C_15
REMARK    5  A    between atoms: C_15  and  C_16
REMARK                            x       y       z     vdW  Elec       q    Type
REMARK                         _______ _______ _______ _____ _____    ______ ____
ROOT
ATOM      1  N   UNL     1       1.080  -0.098   0.000  0.00  0.00    +0.000 N 
ATOM      2  C   UNL     1       1.887   0.073   0.000  0.00  0.00    +0.000 A 
ATOM      3  N   UNL     1       2.299   0.788   0.000  0.00  0.00    +0.000 NA
ATOM      4  C   UNL     1       3.124   0.788   0.000  0.00  0.00    +0.000 A 
ATOM      5  N   UNL     1       3.537   0.073   0.000  0.00  0.00    +0.000 NA
ATOM      6  C   UNL     1       2.299  -0.641   0.000  0.00  0.00    +0.000 A 
ATOM      7  C   UNL     1       3.124  -0.641   0.000  0.00  0.00    +0.000 A 
ATOM      8  N   UNL     1       3.537  -1.356   0.000  0.00  0.00    +0.000 NA
ATOM      9  N   UNL     1       1.747  -1.254   0.000  0.00  0.00    +0.000 NA
ATOM     10  C   UNL     1       0.993  -0.919   0.000  0.00  0.00    +0.000 A 
ATOM     11  F   UNL     1       3.537   1.502   0.000  0.00  0.00    +0.000 F 
ENDROOT
BRANCH   1  12
ATOM     12  C   UNL     1       0.467   0.454   0.000  0.00  0.00    +0.000 C 
BRANCH  12  13
ATOM     13  C   UNL     1       0.638   1.261   0.000  0.00  0.00    +0.000 C 
BRANCH  13  15
ATOM     14  C   UNL     1       0.197   2.620   0.000  0.00  0.00    +0.000 C 
ATOM     15  C   UNL     1       0.025   1.813   0.000  0.00  0.00    +0.000 C 
ENDBRANCH  13  15
ENDBRANCH  12  13
ENDBRANCH   1  12
BRANCH  10  16
ATOM     16  C   UNL     1       0.279  -1.331   0.000  0.00  0.00    +0.000 C 
BRANCH  16  17
ATOM     17  C   UNL     1      -0.436  -0.919   0.000  0.00  0.00    +0.000 A 
ATOM     18  C   UNL     1      -1.150  -1.331   0.000  0.00  0.00    +0.000 A 
ATOM     19  C   UNL     1      -1.865  -0.919   0.000  0.00  0.00    +0.000 A 
ATOM     20  C   UNL     1      -0.436  -0.094   0.000  0.00  0.00    +0.000 A 
ATOM     21  O   UNL     1      -2.649  -1.174   0.000  0.00  0.00    +0.000 OA
ATOM     22  C   UNL     1      -1.150   0.319   0.000  0.00  0.00    +0.000 A 
ATOM     23  C   UNL     1      -1.865  -0.094   0.000  0.00  0.00    +0.000 A 
ATOM     24  O   UNL     1      -2.649   0.161   0.000  0.00  0.00    +0.000 OA
ATOM     25  C   UNL     1      -3.134  -0.506   0.000  0.00  0.00    +0.000 C 
ENDBRANCH  16  17
ENDBRANCH  10  16
TORSDOF 5
