REMARK  Name = PUZ
REMARK  8 active torsions:
REMARK  status: ('A' for Active; 'I' for Inactive)
REMARK    1  A    between atoms: C_2  and  C_3
REMARK    2  A    between atoms: C_3  and  C_4
REMARK    3  A    between atoms: C_4  and  C_5
REMARK    4  A    between atoms: C_5  and  N_6
REMARK    5  A    between atoms: C_16  and  C_17
REMARK    6  A    between atoms: C_17  and  C_18
REMARK    7  A    between atoms: C_19  and  O_20
REMARK    8  A    between atoms: C_24  and  O_26
REMARK                            x       y       z     vdW  Elec       q    Type
REMARK                         _______ _______ _______ _____ _____    ______ ____
ROOT
ATOM      1  N   UNL     1      -0.811   0.448   0.000  0.00  0.00    +0.000 N 
ATOM      2  C   UNL     1      -0.724   1.269   0.000  0.00  0.00    +0.000 A 
ATOM      3  N   UNL     1      -1.276   1.882   0.000  0.00  0.00    +0.000 NA
ATOM      4  C   UNL     1       0.083   1.440   0.000  0.00  0.00    +0.000 A 
ATOM      5  C   UNL     1       0.338   2.225   0.000  0.00  0.00    +0.000 A 
ATOM      6  N   UNL     1       1.145   2.397   0.000  0.00  0.00    +0.000 NA
ATOM      7  N   UNL     1      -0.214   2.838   0.000  0.00  0.00    +0.000 NA
ATOM      8  C   UNL     1      -1.021   2.667   0.000  0.00  0.00    +0.000 A 
ATOM      9  F   UNL     1      -1.573   3.280   0.000  0.00  0.00    +0.000 F 
ATOM     10  N   UNL     1       0.495   0.726   0.000  0.00  0.00    +0.000 NA
ATOM     11  C   UNL     1      -0.057   0.113   0.000  0.00  0.00    +0.000 A 
ENDROOT
BRANCH   1  12
ATOM     12  C   UNL     1      -1.525   0.036   0.000  0.00  0.00    +0.000 C 
BRANCH  12  13
ATOM     13  C   UNL     1      -2.240   0.448   0.000  0.00  0.00    +0.000 C 
BRANCH  13  14
ATOM     14  C   UNL     1      -2.954   0.036   0.000  0.00  0.00    +0.000 C 
BRANCH  14  16
ATOM     15  C   UNL     1      -4.383   0.861   0.000  0.00  0.00    +0.000 C 
ATOM     16  C   UNL     1      -3.668   0.448   0.000  0.00  0.00    +0.000 C 
ENDBRANCH  14  16
ENDBRANCH  13  14
ENDBRANCH  12  13
ENDBRANCH   1  12
BRANCH  11  17
ATOM     17  C   UNL     1       0.115  -0.694   0.000  0.00  0.00    +0.000 C 
BRANCH  17  18
ATOM     18  C   UNL     1       0.899  -0.949   0.000  0.00  0.00    +0.000 A 
ATOM     19  C   UNL     1       1.512  -0.397   0.000  0.00  0.00    +0.000 A 
ATOM     20  C   UNL     1       2.297  -0.652   0.000  0.00  0.00    +0.000 A 
ATOM     21  C   UNL     1       2.469  -1.459   0.000  0.00  0.00    +0.000 A 
ATOM     22  C   UNL     1       1.855  -2.011   0.000  0.00  0.00    +0.000 A 
ATOM     23  C   UNL     1       1.071  -1.756   0.000  0.00  0.00    +0.000 A 
BRANCH  19  24
ATOM     24  O   UNL     1       1.341   0.410   0.000  0.00  0.00    +0.000 OA
ATOM     25  C   UNL     1       1.954   0.962   0.000  0.00  0.00    +0.000 C 
ENDBRANCH  19  24
BRANCH  22  26
ATOM     26  O   UNL     1       2.027  -2.818   0.000  0.00  0.00    +0.000 OA
ATOM     27  C   UNL     1       2.812  -3.073   0.000  0.00  0.00    +0.000 C 
ENDBRANCH  22  26
ENDBRANCH  17  18
ENDBRANCH  11  17
TORSDOF 8
