REMARK  Name = PVB
REMARK  6 active torsions:
REMARK  status: ('A' for Active; 'I' for Inactive)
REMARK    1  A    between atoms: C_2  and  N_3
REMARK    2  A    between atoms: N_11  and  C_12
REMARK    3  A    between atoms: C_15  and  C_19
REMARK    4  A    between atoms: N_22  and  CA_23
REMARK    5  A    between atoms: CA_23  and  CB_24
REMARK    6  A    between atoms: CA_23  and  C_27
REMARK                            x       y       z     vdW  Elec       q    Type
REMARK                         _______ _______ _______ _____ _____    ______ ____
ROOT
ATOM      1  N   UNL     1       0.117   0.036   0.000  0.00  0.00    +0.000 NA
ATOM      2  N   UNL     1      -2.096  -1.044   0.000  0.00  0.00    +0.000 N 
ATOM      3  C   UNL     1      -1.312  -0.789   0.000  0.00  0.00    +0.000 A 
ATOM      4  N   UNL     1      -0.597  -1.201   0.000  0.00  0.00    +0.000 NA
ATOM      5  C   ACE A   0       0.117  -0.789   0.000  0.00  0.00    +0.000 A 
ATOM      6  C   UNL     1      -0.597   0.449   0.000  0.00  0.00    +0.000 A 
ATOM      7  C   UNL     1      -1.312   0.036   0.000  0.00  0.00    +0.000 A 
ATOM      8  N   UNL     1      -2.096   0.291   0.000  0.00  0.00    +0.000 NA
ATOM      9  C   UNL     1      -2.581  -0.376   0.000  0.00  0.00    +0.000 A 
ATOM     10  N   UNL     1      -0.597   1.274   0.000  0.00  0.00    +0.000 NA
ATOM     11  N   UNL     1       0.832  -1.201   0.000  0.00  0.00    +0.000 NA
ENDROOT
BRANCH  10  12
ATOM     12  C   UNL     1      -1.312   1.686   0.000  0.00  0.00    +0.000 A 
ATOM     13  C   UNL     1      -2.026   1.274   0.000  0.00  0.00    +0.000 A 
ATOM     14  C   UNL     1      -2.740   1.686   0.000  0.00  0.00    +0.000 A 
ATOM     15  C   UNL     1      -2.740   2.511   0.000  0.00  0.00    +0.000 A 
ATOM     16  C   UNL     1      -2.026   2.924   0.000  0.00  0.00    +0.000 A 
ATOM     17 CL   UNL     1      -2.026   3.749   0.000  0.00  0.00    +0.000 Cl
ATOM     18  C   UNL     1      -1.312   2.511   0.000  0.00  0.00    +0.000 A 
BRANCH  15  19
ATOM     19  C   UNL     1      -3.455   2.924   0.000  0.00  0.00    +0.000 C 
ATOM     20  O   UNL     1      -3.455   3.749   0.000  0.00  0.00    +0.000 OA
ATOM     21  O   UNL     1      -4.170   2.511   0.000  0.00  0.00    +0.000 OA
ENDBRANCH  15  19
ENDBRANCH  10  12
BRANCH   2  22
ATOM     22  C   UNL     1      -2.351  -1.828   0.000  0.00  0.00    +0.000 C 
ATOM     23  C   UNL     1      -3.158  -2.000   0.000  0.00  0.00    +0.000 C 
ATOM     24  C   UNL     1      -1.799  -2.441   0.000  0.00  0.00    +0.000 C 
ENDBRANCH   2  22
BRANCH  11  25
ATOM     25  CA  UNL     1       1.546  -0.789   0.000  0.00  0.00    +0.000 C 
BRANCH  25  26
ATOM     26  CB  UNL     1       2.261  -1.201   0.000  0.00  0.00    +0.000 C 
ATOM     27  CG1 UNL     1       2.975  -0.789   0.000  0.00  0.00    +0.000 C 
ATOM     28  CG2 UNL     1       2.261  -2.026   0.000  0.00  0.00    +0.000 C 
ENDBRANCH  25  26
BRANCH  25  29
ATOM     29  C   UNL     1       1.546   0.036   0.000  0.00  0.00    +0.000 C 
ATOM     30  O   UNL     1       2.261   0.449   0.000  0.00  0.00    +0.000 OA
ENDBRANCH  25  29
ENDBRANCH  11  25
TORSDOF 6
