REMARK  Name = PXB
REMARK  5 active torsions:
REMARK  status: ('A' for Active; 'I' for Inactive)
REMARK    1  A    between atoms: C_2  and  C_3
REMARK    2  A    between atoms: N_5  and  S_6
REMARK    3  A    between atoms: S_6  and  C_9
REMARK    4  A    between atoms: C_12  and  C_15
REMARK    5  A    between atoms: C_17  and  C_20
REMARK                            x       y       z     vdW  Elec       q    Type
REMARK                         _______ _______ _______ _____ _____    ______ ____
ROOT
ATOM      1  C   UNL     1      -0.186   1.094   0.000  0.00  0.00    +0.000 A 
ATOM      2  C   UNL     1       0.528   1.507   0.000  0.00  0.00    +0.000 A 
ATOM      3  C   UNL     1       1.242   1.094   0.000  0.00  0.00    +0.000 A 
ATOM      4  C   UNL     1       1.242   0.269   0.000  0.00  0.00    +0.000 A 
ATOM      5  C   UNL     1       0.528  -0.143   0.000  0.00  0.00    +0.000 A 
ATOM      6  C   UNL     1      -0.186   0.269   0.000  0.00  0.00    +0.000 A 
ENDROOT
BRANCH   4   7
ATOM      7  C   UNL     1       1.957  -0.143   0.000  0.00  0.00    +0.000 A 
ATOM      8  C   UNL     1       2.711   0.192   0.000  0.00  0.00    +0.000 A 
ATOM      9  C   UNL     1       2.043  -0.964   0.000  0.00  0.00    +0.000 A 
ATOM     10  O   UNL     1       3.263  -0.421   0.000  0.00  0.00    +0.000 OA
ATOM     11  N   UNL     1       2.850  -1.135   0.000  0.00  0.00    +0.000 NA
ATOM     12  C   UNL     1       2.882   0.999   0.000  0.00  0.00    +0.000 C 
BRANCH   9  13
ATOM     13  C   UNL     1       1.430  -1.516   0.000  0.00  0.00    +0.000 A 
ATOM     14  C   UNL     1       1.602  -2.323   0.000  0.00  0.00    +0.000 A 
ATOM     15  C   UNL     1       0.989  -2.875   0.000  0.00  0.00    +0.000 A 
ATOM     16  C   UNL     1       0.204  -2.620   0.000  0.00  0.00    +0.000 A 
ATOM     17  C   UNL     1       0.032  -1.813   0.000  0.00  0.00    +0.000 A 
ATOM     18  C   UNL     1       0.645  -1.261   0.000  0.00  0.00    +0.000 A 
ENDBRANCH   9  13
ENDBRANCH   4   7
BRANCH   1  19
ATOM     19  S   UNL     1      -0.901   1.507   0.000  0.00  0.00    +0.000 S 
ATOM     20  O   UNL     1      -1.313   0.792   0.000  0.00  0.00    +0.000 OA
ATOM     21  O   UNL     1      -0.488   2.221   0.000  0.00  0.00    +0.000 OA
BRANCH  19  24
ATOM     22  C   UNL     1      -2.330   1.507   0.000  0.00  0.00    +0.000 C 
ATOM     23  O   UNL     1      -2.330   0.682   0.000  0.00  0.00    +0.000 OA
ATOM     24  N   UNL     1      -1.615   1.919   0.000  0.00  0.00    +0.000 NA
BRANCH  22  26
ATOM     25  C   UNL     1      -3.759   1.507   0.000  0.00  0.00    +0.000 C 
ATOM     26  C   UNL     1      -3.044   1.919   0.000  0.00  0.00    +0.000 C 
ENDBRANCH  22  26
ENDBRANCH  19  24
ENDBRANCH   1  19
TORSDOF 5
