REMARK  Name = PXX
REMARK  1 active torsions:
REMARK  status: ('A' for Active; 'I' for Inactive)
REMARK    1  A    between atoms: N_4  and  C_5
REMARK                            x       y       z     vdW  Elec       q    Type
REMARK                         _______ _______ _______ _____ _____    ______ ____
ROOT
ATOM      1  C   UNL     1       0.416   0.419   0.000  0.00  0.00    +0.000 A 
ATOM      2  C   UNL     1       0.828  -0.296   0.000  0.00  0.00    +0.000 A 
ATOM      3  C   UNL     1       1.653  -0.296   0.000  0.00  0.00    +0.000 A 
ATOM      4  C   UNL     1       2.066  -1.010   0.000  0.00  0.00    +0.000 A 
ATOM      5  C   UNL     1       1.653  -1.725   0.000  0.00  0.00    +0.000 A 
ATOM      6  N   UNL     1       0.828  -1.725   0.000  0.00  0.00    +0.000 NA
ATOM      7  C   UNL     1       0.416  -1.010   0.000  0.00  0.00    +0.000 A 
ATOM      8  C   UNL     1      -0.409  -1.010   0.000  0.00  0.00    +0.000 A 
ATOM      9  N   UNL     1      -0.822  -1.725   0.000  0.00  0.00    +0.000 NA
ATOM     10  C   UNL     1      -1.647  -1.725   0.000  0.00  0.00    +0.000 A 
ATOM     11  C   UNL     1      -2.059  -1.010   0.000  0.00  0.00    +0.000 A 
ATOM     12  C   UNL     1      -1.647  -0.296   0.000  0.00  0.00    +0.000 A 
ATOM     13  C   UNL     1      -0.822  -0.296   0.000  0.00  0.00    +0.000 A 
ATOM     14  C   UNL     1      -0.409   0.419   0.000  0.00  0.00    +0.000 A 
ENDROOT
BRANCH   1  18
ATOM     15  C   UNL     1       0.828   2.562   0.000  0.00  0.00    +0.000 C 
ATOM     16  C   UNL     1       0.416   1.848   0.000  0.00  0.00    +0.000 C 
ATOM     17  O   UNL     1      -0.409   1.848   0.000  0.00  0.00    +0.000 OA
ATOM     18  N   UNL     1       0.828   1.133   0.000  0.00  0.00    +0.000 NA
ENDBRANCH   1  18
TORSDOF 1
