REMARK  Name = PY1
REMARK  2 active torsions:
REMARK  status: ('A' for Active; 'I' for Inactive)
REMARK    1  A    between atoms: C_1  and  C_6
REMARK    2  A    between atoms: C_2  and  C_7
REMARK                            x       y       z     vdW  Elec       q    Type
REMARK                         _______ _______ _______ _____ _____    ______ ____
ROOT
ATOM      1  C   UNL     1       0.378  -0.620   0.000  0.00  0.00    +0.000 A 
ATOM      2  C   UNL     1      -0.289  -1.105   0.000  0.00  0.00    +0.000 A 
ATOM      3  N   UNL     1      -0.034  -1.889   0.000  0.00  0.00    +0.000 NA
ATOM      4  N   UNL     1       0.791  -1.889   0.000  0.00  0.00    +0.000 NA
ATOM      5  C   UNL     1       1.046  -1.105   0.000  0.00  0.00    +0.000 A 
ENDROOT
BRANCH   1   6
ATOM      6  C   UNL     1       0.378   0.205   0.000  0.00  0.00    +0.000 A 
ATOM      7  C   UNL     1       1.093   0.618   0.000  0.00  0.00    +0.000 A 
ATOM      8  C   UNL     1       1.093   1.443   0.000  0.00  0.00    +0.000 A 
ATOM      9  N   UNL     1       0.378   1.855   0.000  0.00  0.00    +0.000 NA
ATOM     10  C   UNL     1      -0.336   1.443   0.000  0.00  0.00    +0.000 A 
ATOM     11  C   UNL     1      -0.336   0.618   0.000  0.00  0.00    +0.000 A 
ATOM     12  C   UNL     1       1.807   0.205   0.000  0.00  0.00    +0.000 A 
ATOM     13  C   UNL     1       2.522   0.618   0.000  0.00  0.00    +0.000 A 
ATOM     14  C   UNL     1       2.522   1.443   0.000  0.00  0.00    +0.000 A 
ATOM     15  C   UNL     1       1.807   1.855   0.000  0.00  0.00    +0.000 A 
ENDBRANCH   1   6
BRANCH   2  16
ATOM     16  C   UNL     1      -1.074  -0.850   0.000  0.00  0.00    +0.000 A 
ATOM     17  N   UNL     1      -1.245  -0.043   0.000  0.00  0.00    +0.000 NA
ATOM     18  C   UNL     1      -2.030   0.212   0.000  0.00  0.00    +0.000 A 
ATOM     19  C   UNL     1      -2.643  -0.340   0.000  0.00  0.00    +0.000 A 
ATOM     20  C   UNL     1      -2.471  -1.147   0.000  0.00  0.00    +0.000 A 
ATOM     21  C   UNL     1      -1.687  -1.402   0.000  0.00  0.00    +0.000 A 
ENDBRANCH   2  16
TORSDOF 2
