REMARK  Name = PY8
REMARK  0 active torsions:
REMARK  status: ('A' for Active; 'I' for Inactive)
REMARK                            x       y       z     vdW  Elec       q    Type
REMARK                         _______ _______ _______ _____ _____    ______ ____
ROOT
ATOM      1 BR   UNL     1       4.949  -0.197   0.000  0.00  0.00    +0.000 Br
ATOM      2  C   UNL     1       4.234   0.215   0.000  0.00  0.00    +0.000 A 
ATOM      3  C   UNL     1       4.234   1.040   0.000  0.00  0.00    +0.000 A 
ATOM      4  N   UNL     1       3.520   1.453   0.000  0.00  0.00    +0.000 NA
ATOM      5  C   UNL     1       2.805   1.040   0.000  0.00  0.00    +0.000 A 
ATOM      6  N   UNL     1       2.805   0.215   0.000  0.00  0.00    +0.000 NA
ATOM      7  C   UNL     1       3.520  -0.197   0.000  0.00  0.00    +0.000 A 
ATOM      8  N   UNL     1       3.520  -1.022   0.000  0.00  0.00    +0.000 NA
ATOM      9  C   UNL     1       2.758  -1.507   0.000  0.00  0.00    +0.000 C 
ATOM     10  C   UNL     1       2.503  -2.292   0.000  0.00  0.00    +0.000 C 
ATOM     11  C   UNL     1       1.678  -2.292   0.000  0.00  0.00    +0.000 C 
ATOM     12  N   UNL     1       1.423  -1.507   0.000  0.00  0.00    +0.000 NA
ATOM     13  S   UNL     1       0.662  -1.022   0.000  0.00  0.00    +0.000 S 
ATOM     14  O   UNL     1       0.357  -1.789   0.000  0.00  0.00    +0.000 OA
ATOM     15  O   UNL     1      -0.149  -0.867   0.000  0.00  0.00    +0.000 OA
ATOM     16  C   UNL     1       0.662  -0.197   0.000  0.00  0.00    +0.000 A 
ATOM     17  C   UNL     1       1.376   0.215   0.000  0.00  0.00    +0.000 A 
ATOM     18  C   UNL     1      -0.053   0.215   0.000  0.00  0.00    +0.000 A 
ATOM     19  C   UNL     1      -0.053   1.040   0.000  0.00  0.00    +0.000 A 
ATOM     20  C   UNL     1       0.662   1.453   0.000  0.00  0.00    +0.000 A 
ATOM     21  C   UNL     1       1.376   1.040   0.000  0.00  0.00    +0.000 A 
ATOM     22  N   UNL     1       2.091   1.453   0.000  0.00  0.00    +0.000 NA
ENDROOT
TORSDOF 0
