REMARK  Name = PY9
REMARK  2 active torsions:
REMARK  status: ('A' for Active; 'I' for Inactive)
REMARK    1  A    between atoms: C_5  and  C_15
REMARK    2  A    between atoms: C_6  and  C_16
REMARK                            x       y       z     vdW  Elec       q    Type
REMARK                         _______ _______ _______ _____ _____    ______ ____
ROOT
ATOM      1  N   UNL     1       0.056  -0.452   0.000  0.00  0.00    +0.000 N 
ATOM      2  C   UNL     1       0.840  -0.197   0.000  0.00  0.00    +0.000 C 
ATOM      3  C   UNL     1      -0.612   0.033   0.000  0.00  0.00    +0.000 C 
ATOM      4  C   UNL     1      -1.024  -1.237   0.000  0.00  0.00    +0.000 C 
ATOM      5  C   UNL     1      -1.279  -0.452   0.000  0.00  0.00    +0.000 C 
ATOM      6  C   UNL     1      -0.199  -1.237   0.000  0.00  0.00    +0.000 C 
ATOM      7  O   UNL     1       1.012   0.610   0.000  0.00  0.00    +0.000 OA
ENDROOT
BRANCH   2  13
ATOM      8  C   UNL     1       2.680  -1.853   0.000  0.00  0.00    +0.000 A 
ATOM      9  C   UNL     1       2.851  -1.046   0.000  0.00  0.00    +0.000 A 
ATOM     10  C   UNL     1       2.238  -0.494   0.000  0.00  0.00    +0.000 A 
ATOM     11  C   UNL     1       1.282  -1.556   0.000  0.00  0.00    +0.000 A 
ATOM     12  C   UNL     1       1.895  -2.108   0.000  0.00  0.00    +0.000 A 
ATOM     13  C   UNL     1       1.454  -0.749   0.000  0.00  0.00    +0.000 A 
ATOM     14  O   UNL     1       3.293  -2.405   0.000  0.00  0.00    +0.000 OA
ATOM     15  O   UNL     1       2.410   0.313   0.000  0.00  0.00    +0.000 OA
ENDBRANCH   2  13
BRANCH   3  21
ATOM     16  C   UNL     1       0.103   1.270   0.000  0.00  0.00    +0.000 A 
ATOM     17  C   UNL     1      -0.612   2.508   0.000  0.00  0.00    +0.000 A 
ATOM     18  C   UNL     1      -1.326   1.270   0.000  0.00  0.00    +0.000 A 
ATOM     19  C   UNL     1       0.103   2.095   0.000  0.00  0.00    +0.000 A 
ATOM     20  C   UNL     1      -1.326   2.095   0.000  0.00  0.00    +0.000 A 
ATOM     21  C   UNL     1      -0.612   0.858   0.000  0.00  0.00    +0.000 A 
ATOM     22  C   UNL     1      -2.041   0.858   0.000  0.00  0.00    +0.000 C 
ENDBRANCH   3  21
TORSDOF 2
