REMARK  Name = PYU
REMARK  1 active torsions:
REMARK  status: ('A' for Active; 'I' for Inactive)
REMARK    1  A    between atoms: C_9  and  C_12
REMARK                            x       y       z     vdW  Elec       q    Type
REMARK                         _______ _______ _______ _____ _____    ______ ____
ROOT
ATOM      1  C   UNL     1       0.038   1.352   0.000  0.00  0.00    +0.000 A 
ATOM      2  C   UNL     1      -1.391   0.527   0.000  0.00  0.00    +0.000 A 
ATOM      3  C   UNL     1      -0.676   1.764   0.000  0.00  0.00    +0.000 A 
ATOM      4  C   UNL     1       0.038   0.527   0.000  0.00  0.00    +0.000 A 
ATOM      5  C   UNL     1      -1.391   1.352   0.000  0.00  0.00    +0.000 A 
ATOM      6  C   UNL     1      -0.676   0.114   0.000  0.00  0.00    +0.000 A 
ATOM      7  O   UNL     1      -2.105   1.764   0.000  0.00  0.00    +0.000 OA
ATOM      8  O   UNL     1      -0.676  -0.711   0.000  0.00  0.00    +0.000 OA
ATOM      9  O   UNL     1       0.752   1.764   0.000  0.00  0.00    +0.000 OA
ENDROOT
BRANCH   4  15
ATOM     10  N   UNL     1       0.752  -0.711   0.000  0.00  0.00    +0.000 N 
ATOM     11  C   UNL     1       1.420  -1.196   0.000  0.00  0.00    +0.000 A 
ATOM     12  C   UNL     1       0.085  -1.196   0.000  0.00  0.00    +0.000 A 
ATOM     13  C   UNL     1       1.165  -1.980   0.000  0.00  0.00    +0.000 A 
ATOM     14  C   UNL     1       0.340  -1.980   0.000  0.00  0.00    +0.000 A 
ATOM     15  C   UNL     1       0.752   0.114   0.000  0.00  0.00    +0.000 C 
ATOM     16  O   UNL     1       1.467   0.527   0.000  0.00  0.00    +0.000 OA
ENDBRANCH   4  15
TORSDOF 1
