REMARK  Name = PZ2
REMARK  5 active torsions:
REMARK  status: ('A' for Active; 'I' for Inactive)
REMARK    1  A    between atoms: C_7  and  C_27
REMARK    2  A    between atoms: C_10  and  O_25
REMARK    3  A    between atoms: C_13  and  C_27
REMARK    4  A    between atoms: C_18  and  C_23
REMARK    5  A    between atoms: C_20  and  O_25
REMARK                            x       y       z     vdW  Elec       q    Type
REMARK                         _______ _______ _______ _____ _____    ______ ____
ROOT
ATOM      1  C   UNL     1      -0.668   0.735   0.000  0.00  0.00    +0.000 A 
ATOM      2  C   UNL     1      -0.116   1.348   0.000  0.00  0.00    +0.000 A 
ATOM      3  C   UNL     1       0.691   1.177   0.000  0.00  0.00    +0.000 A 
ATOM      4  C   UNL     1       0.946   0.392   0.000  0.00  0.00    +0.000 A 
ATOM      5  C   UNL     1       0.394  -0.221   0.000  0.00  0.00    +0.000 A 
ATOM      6  C   UNL     1      -0.413  -0.050   0.000  0.00  0.00    +0.000 A 
ATOM      7 BR   UNL     1      -0.371   2.133   0.000  0.00  0.00    +0.000 Br
ENDROOT
BRANCH   1   8
ATOM      8  O   UNL     1      -1.475   0.906   0.000  0.00  0.00    +0.000 OA
BRANCH   8  13
ATOM      9  C   UNL     1      -2.324  -1.104   0.000  0.00  0.00    +0.000 A 
ATOM     10  C   UNL     1      -3.131  -0.933   0.000  0.00  0.00    +0.000 A 
ATOM     11  C   UNL     1      -3.386  -0.148   0.000  0.00  0.00    +0.000 A 
ATOM     12  C   UNL     1      -2.834   0.465   0.000  0.00  0.00    +0.000 A 
ATOM     13  C   UNL     1      -2.027   0.293   0.000  0.00  0.00    +0.000 A 
ATOM     14  C   UNL     1      -1.772  -0.491   0.000  0.00  0.00    +0.000 A 
ATOM     15  C   UNL     1      -2.069  -1.889   0.000  0.00  0.00    +0.000 C 
BRANCH  11  16
ATOM     16  C   UNL     1      -4.193   0.023   0.000  0.00  0.00    +0.000 C 
ATOM     17  N   UNL     1      -5.000   0.195   0.000  0.00  0.00    +0.000 NA
ENDBRANCH  11  16
ENDBRANCH   8  13
ENDBRANCH   1   8
BRANCH   4  18
ATOM     18  C   UNL     1       1.753   0.220   0.000  0.00  0.00    +0.000 C 
BRANCH  18  25
ATOM     19  C   UNL     1       2.793  -0.819   0.000  0.00  0.00    +0.000 A 
ATOM     20  C   UNL     1       3.507  -0.407   0.000  0.00  0.00    +0.000 A 
ATOM     21  C   UNL     1       4.222  -0.819   0.000  0.00  0.00    +0.000 A 
ATOM     22  N   UNL     1       4.222  -1.644   0.000  0.00  0.00    +0.000 NA
ATOM     23  N   UNL     1       3.507  -2.057   0.000  0.00  0.00    +0.000 NA
ATOM     24  C   UNL     1       2.793  -1.644   0.000  0.00  0.00    +0.000 A 
ATOM     25  C   UNL     1       2.008  -0.564   0.000  0.00  0.00    +0.000 A 
ATOM     26  N   UNL     1       2.008  -1.899   0.000  0.00  0.00    +0.000 NA
ATOM     27  N   UNL     1       1.523  -1.232   0.000  0.00  0.00    +0.000 NA
ENDBRANCH  18  25
ENDBRANCH   4  18
TORSDOF 5
