REMARK  Name = PZF
REMARK  4 active torsions:
REMARK  status: ('A' for Active; 'I' for Inactive)
REMARK    1  A    between atoms: C_2  and  O_28
REMARK    2  A    between atoms: C_4  and  C_5
REMARK    3  A    between atoms: N_19  and  C_21
REMARK    4  A    between atoms: C_24  and  C_26
REMARK                            x       y       z     vdW  Elec       q    Type
REMARK                         _______ _______ _______ _____ _____    ______ ____
ROOT
ATOM      1  C   UNL     1      -0.514   1.690   0.000  0.00  0.00    +0.000 C 
ATOM      2  C   UNL     1      -0.927   0.420   0.000  0.00  0.00    +0.000 C 
ATOM      3  C   UNL     1      -1.182   1.205   0.000  0.00  0.00    +0.000 C 
ATOM      4  N   UNL     1      -1.966   1.460   0.000  0.00  0.00    +0.000 NA
ATOM      5  N   UNL     1      -0.102   0.420   0.000  0.00  0.00    +0.000 N 
ATOM      6  C   UNL     1       0.153   1.205   0.000  0.00  0.00    +0.000 C 
ENDROOT
BRANCH   1   7
ATOM      7  C   UNL     1      -0.514   2.515   0.000  0.00  0.00    +0.000 A 
ATOM      8  C   UNL     1       0.200   2.927   0.000  0.00  0.00    +0.000 A 
ATOM      9  F   UNL     1      -0.514   4.990   0.000  0.00  0.00    +0.000 F 
ATOM     10  C   UNL     1      -0.514   4.165   0.000  0.00  0.00    +0.000 A 
ATOM     11  C   UNL     1      -1.229   3.752   0.000  0.00  0.00    +0.000 A 
ATOM     12  C   UNL     1      -1.229   2.927   0.000  0.00  0.00    +0.000 A 
ATOM     13  F   UNL     1      -1.943   2.515   0.000  0.00  0.00    +0.000 F 
ATOM     14  C   UNL     1       0.200   3.752   0.000  0.00  0.00    +0.000 A 
ATOM     15  F   UNL     1       0.915   4.165   0.000  0.00  0.00    +0.000 F 
ENDBRANCH   1   7
BRANCH   5  17
ATOM     16  C   UNL     1       1.689  -0.829   0.000  0.00  0.00    +0.000 A 
ATOM     17  C   UNL     1       0.383  -0.247   0.000  0.00  0.00    +0.000 A 
ATOM     18  N   UNL     1       1.204  -0.161   0.000  0.00  0.00    +0.000 NA
ATOM     19  C   UNL     1       0.048  -1.001   0.000  0.00  0.00    +0.000 A 
ATOM     20  C   UNL     1       0.533  -1.668   0.000  0.00  0.00    +0.000 A 
ATOM     21  N   UNL     1       1.353  -1.582   0.000  0.00  0.00    +0.000 NA
BRANCH  20  25
ATOM     22  N   UNL     1       0.346  -3.843   0.000  0.00  0.00    +0.000 NA
ATOM     23  C   UNL     1      -0.474  -3.929   0.000  0.00  0.00    +0.000 A 
ATOM     24  C   UNL     1      -0.623  -2.508   0.000  0.00  0.00    +0.000 A 
ATOM     25  C   UNL     1       0.197  -2.422   0.000  0.00  0.00    +0.000 A 
ATOM     26  C   UNL     1      -0.959  -3.262   0.000  0.00  0.00    +0.000 A 
ATOM     27  C   UNL     1       0.682  -3.090   0.000  0.00  0.00    +0.000 A 
BRANCH  23  29
ATOM     28  C   UNL     1      -0.325  -5.351   0.000  0.00  0.00    +0.000 C 
ATOM     29  O   UNL     1      -0.810  -4.683   0.000  0.00  0.00    +0.000 OA
ENDBRANCH  23  29
ENDBRANCH  20  25
ENDBRANCH   5  17
TORSDOF 4
