REMARK  Name = PZL
REMARK  5 active torsions:
REMARK  status: ('A' for Active; 'I' for Inactive)
REMARK    1  A    between atoms: C_2  and  C_3
REMARK    2  A    between atoms: C_9  and  O_10
REMARK    3  A    between atoms: O_10  and  C_11
REMARK    4  A    between atoms: C_16  and  C_19
REMARK    5  A    between atoms: C_19  and  C_20
REMARK                            x       y       z     vdW  Elec       q    Type
REMARK                         _______ _______ _______ _____ _____    ______ ____
ROOT
ATOM      1  C   UNL     1      -0.160  -0.698   0.000  0.00  0.00    +0.000 A 
ATOM      2  C   UNL     1      -0.712  -0.085   0.000  0.00  0.00    +0.000 A 
ATOM      3 BR   UNL     1      -1.519  -0.256   0.000  0.00  0.00    +0.000 Br
ATOM      4  C   UNL     1       0.647  -0.526   0.000  0.00  0.00    +0.000 A 
ATOM      5  F   UNL     1       1.199  -1.139   0.000  0.00  0.00    +0.000 F 
ATOM      6  C   UNL     1       0.902   0.259   0.000  0.00  0.00    +0.000 A 
ATOM      7  C   UNL     1       0.349   0.872   0.000  0.00  0.00    +0.000 A 
ATOM      8  C   UNL     1      -0.457   0.700   0.000  0.00  0.00    +0.000 A 
ENDROOT
BRANCH   1   9
ATOM      9  O   UNL     1      -0.415  -1.482   0.000  0.00  0.00    +0.000 OA
BRANCH   9  16
ATOM     10  C   UNL     1      -2.284  -2.610   0.000  0.00  0.00    +0.000 A 
ATOM     11  C   UNL     1      -2.836  -1.997   0.000  0.00  0.00    +0.000 A 
ATOM     12  C   UNL     1      -2.581  -1.212   0.000  0.00  0.00    +0.000 A 
ATOM     13 CL   UNL     1      -3.133  -0.599   0.000  0.00  0.00    +0.000 Cl
ATOM     14  C   UNL     1      -1.774  -1.041   0.000  0.00  0.00    +0.000 A 
ATOM     15  C   UNL     1      -1.477  -2.438   0.000  0.00  0.00    +0.000 A 
ATOM     16  C   UNL     1      -1.222  -1.654   0.000  0.00  0.00    +0.000 A 
BRANCH  10  18
ATOM     17  N   UNL     1      -2.794  -4.179   0.000  0.00  0.00    +0.000 NA
ATOM     18  C   UNL     1      -2.539  -3.394   0.000  0.00  0.00    +0.000 C 
ENDBRANCH  10  18
ENDBRANCH   9  16
ENDBRANCH   1   9
BRANCH   6  19
ATOM     19  C   UNL     1       1.708   0.430   0.000  0.00  0.00    +0.000 C 
BRANCH  19  20
ATOM     20  C   UNL     1       1.964   1.215   0.000  0.00  0.00    +0.000 A 
ATOM     21  N   UNL     1       1.479   1.882   0.000  0.00  0.00    +0.000 NA
ATOM     22  N   UNL     1       1.964   2.550   0.000  0.00  0.00    +0.000 NA
ATOM     23  C   UNL     1       2.748   2.295   0.000  0.00  0.00    +0.000 A 
ATOM     24  N   UNL     1       3.463   2.707   0.000  0.00  0.00    +0.000 NA
ATOM     25  C   UNL     1       2.748   1.470   0.000  0.00  0.00    +0.000 A 
ATOM     26  C   UNL     1       3.463   1.057   0.000  0.00  0.00    +0.000 A 
ATOM     27  C   UNL     1       4.177   1.470   0.000  0.00  0.00    +0.000 A 
ATOM     28  N   UNL     1       4.177   2.295   0.000  0.00  0.00    +0.000 NA
ENDBRANCH  19  20
ENDBRANCH   6  19
TORSDOF 5
