REMARK  Name = PZZ
REMARK  5 active torsions:
REMARK  status: ('A' for Active; 'I' for Inactive)
REMARK    1  A    between atoms: C_2  and  C_10
REMARK    2  A    between atoms: C_7  and  C_14
REMARK    3  A    between atoms: C_10  and  N_11
REMARK    4  A    between atoms: C_14  and  C_15
REMARK    5  A    between atoms: C_15  and  C_16
REMARK                            x       y       z     vdW  Elec       q    Type
REMARK                         _______ _______ _______ _____ _____    ______ ____
ROOT
ATOM      1  C   UNL     1      -1.030   0.118   0.000  0.00  0.00    +0.000 A 
ATOM      2  C   UNL     1      -0.545   0.785   0.000  0.00  0.00    +0.000 A 
ATOM      3  N   UNL     1      -0.545  -0.550   0.000  0.00  0.00    +0.000 NA
ATOM      4  C   UNL     1       0.954   0.943   0.000  0.00  0.00    +0.000 A 
ATOM      5  C   UNL     1       1.669   0.530   0.000  0.00  0.00    +0.000 A 
ATOM      6  C   UNL     1       1.669  -0.295   0.000  0.00  0.00    +0.000 A 
ATOM      7  C   UNL     1       0.954  -0.707   0.000  0.00  0.00    +0.000 A 
ATOM      8  C   UNL     1       0.239   0.530   0.000  0.00  0.00    +0.000 A 
ATOM      9  C   UNL     1       0.239  -0.295   0.000  0.00  0.00    +0.000 A 
ENDROOT
BRANCH   2  10
ATOM     10  C   UNL     1      -0.800   1.570   0.000  0.00  0.00    +0.000 C 
BRANCH  10  11
ATOM     11  N   UNL     1      -1.607   1.741   0.000  0.00  0.00    +0.000 NA
ATOM     12  C   UNL     1      -1.862   2.526   0.000  0.00  0.00    +0.000 C 
ATOM     13  C   UNL     1      -2.159   1.128   0.000  0.00  0.00    +0.000 C 
ENDBRANCH  10  11
ENDBRANCH   2  10
BRANCH   7  14
ATOM     14  C   UNL     1       0.954  -1.532   0.000  0.00  0.00    +0.000 C 
BRANCH  14  15
ATOM     15  C   UNL     1       1.669  -1.945   0.000  0.00  0.00    +0.000 C 
BRANCH  15  16
ATOM     16  C   UNL     1       1.669  -2.770   0.000  0.00  0.00    +0.000 C 
ATOM     17  O   UNL     1       2.383  -3.182   0.000  0.00  0.00    +0.000 OA
ENDBRANCH  15  16
ENDBRANCH  14  15
ENDBRANCH   7  14
TORSDOF 5
