REMARK  Name = Q22
REMARK  2 active torsions:
REMARK  status: ('A' for Active; 'I' for Inactive)
REMARK    1  A    between atoms: C_12  and  C_13
REMARK    2  A    between atoms: C_13  and  N_14
REMARK                            x       y       z     vdW  Elec       q    Type
REMARK                         _______ _______ _______ _____ _____    ______ ____
ROOT
ATOM      1  N   UNL     1      -0.701  -0.100   0.000  0.00  0.00    +0.000 N 
ATOM      2  C   UNL     1       0.042  -0.458   0.000  0.00  0.00    +0.000 C 
ATOM      3  C   UNL     1       0.647   0.103   0.000  0.00  0.00    +0.000 C 
ATOM      4  C   UNL     1       1.435  -0.140   0.000  0.00  0.00    +0.000 C 
ATOM      5  C   UNL     1       1.619  -0.944   0.000  0.00  0.00    +0.000 C 
ATOM      6  C   UNL     1       1.014  -1.506   0.000  0.00  0.00    +0.000 C 
ATOM      7  C   UNL     1       0.226  -1.262   0.000  0.00  0.00    +0.000 C 
ATOM      8  C   UNL     1      -0.289  -1.907   0.000  0.00  0.00    +0.000 C 
ATOM      9  C   UNL     1      -1.114  -1.907   0.000  0.00  0.00    +0.000 C 
ATOM     10  C   UNL     1      -1.628  -1.262   0.000  0.00  0.00    +0.000 A 
ATOM     11  C   UNL     1      -2.416  -1.506   0.000  0.00  0.00    +0.000 A 
ATOM     12  C   UNL     1      -1.444  -0.458   0.000  0.00  0.00    +0.000 A 
ATOM     13  C   UNL     1      -2.049   0.103   0.000  0.00  0.00    +0.000 A 
ATOM     14  C   UNL     1      -2.837  -0.140   0.000  0.00  0.00    +0.000 A 
ATOM     15  C   UNL     1      -3.021  -0.944   0.000  0.00  0.00    +0.000 A 
ATOM     16  O   UNL     1      -3.809  -1.188   0.000  0.00  0.00    +0.000 OA
ENDROOT
BRANCH   1  17
ATOM     17  C   UNL     1      -0.701   0.725   0.000  0.00  0.00    +0.000 C 
BRANCH  17  29
ATOM     18  C   UNL     1       0.013   1.962   0.000  0.00  0.00    +0.000 A 
ATOM     19  N   UNL     1       0.728   2.375   0.000  0.00  0.00    +0.000 NA
ATOM     20  C   UNL     1       1.442   1.962   0.000  0.00  0.00    +0.000 A 
ATOM     21  N   UNL     1       2.157   2.375   0.000  0.00  0.00    +0.000 NA
ATOM     22  C   UNL     1       2.871   1.962   0.000  0.00  0.00    +0.000 A 
ATOM     23  N   UNL     1       3.586   2.375   0.000  0.00  0.00    +0.000 NA
ATOM     24  N   UNL     1       2.871   1.137   0.000  0.00  0.00    +0.000 NA
ATOM     25  C   UNL     1       2.157   0.725   0.000  0.00  0.00    +0.000 A 
ATOM     26  N   UNL     1       2.157  -0.100   0.000  0.00  0.00    +0.000 NA
ATOM     27  C   UNL     1       1.442   1.137   0.000  0.00  0.00    +0.000 A 
ATOM     28  N   UNL     1       0.728   0.725   0.000  0.00  0.00    +0.000 NA
ATOM     29  C   UNL     1       0.013   1.137   0.000  0.00  0.00    +0.000 A 
ENDBRANCH  17  29
ENDBRANCH   1  17
TORSDOF 2
