REMARK  Name = Q74
REMARK  4 active torsions:
REMARK  status: ('A' for Active; 'I' for Inactive)
REMARK    1  A    between atoms: C_12  and  C_13
REMARK    2  A    between atoms: C_13  and  C_14
REMARK    3  A    between atoms: N_18  and  C_19
REMARK    4  A    between atoms: C_19  and  C_20
REMARK                            x       y       z     vdW  Elec       q    Type
REMARK                         _______ _______ _______ _____ _____    ______ ____
ROOT
ATOM      1  C   UNL     1      -0.628   0.372   0.000  0.00  0.00    +0.000 C 
ENDROOT
BRANCH   1  13
ATOM      2  F   UNL     1       2.821   2.970   0.000  0.00  0.00    +0.000 F 
ATOM      3  C   UNL     1       2.037   2.715   0.000  0.00  0.00    +0.000 A 
ATOM      4  C   UNL     1       1.865   1.908   0.000  0.00  0.00    +0.000 A 
ATOM      5  F   UNL     1       2.478   1.356   0.000  0.00  0.00    +0.000 F 
ATOM      6  C   UNL     1       1.423   3.267   0.000  0.00  0.00    +0.000 A 
ATOM      7  C   UNL     1       0.639   3.012   0.000  0.00  0.00    +0.000 A 
ATOM      8  F   UNL     1       0.026   3.564   0.000  0.00  0.00    +0.000 F 
ATOM      9  C   UNL     1       0.467   2.205   0.000  0.00  0.00    +0.000 A 
ATOM     10  C   UNL     1       1.080   1.653   0.000  0.00  0.00    +0.000 A 
ATOM     11  N   UNL     1       0.745   0.899   0.000  0.00  0.00    +0.000 NA
ATOM     12  S   UNL     1      -0.247   1.792   0.000  0.00  0.00    +0.000 S 
ATOM     13  C   UNL     1      -0.076   0.986   0.000  0.00  0.00    +0.000 A 
ENDBRANCH   1  13
BRANCH   1  14
ATOM     14  C   UNL     1      -0.373  -0.412   0.000  0.00  0.00    +0.000 A 
ATOM     15  C   UNL     1       0.412  -0.667   0.000  0.00  0.00    +0.000 A 
ATOM     16  C   UNL     1       1.126  -0.255   0.000  0.00  0.00    +0.000 A 
ATOM     17  C   UNL     1      -0.858  -1.080   0.000  0.00  0.00    +0.000 A 
ATOM     18  N   UNL     1      -0.373  -1.747   0.000  0.00  0.00    +0.000 N 
ATOM     19  C   UNL     1       0.412  -1.492   0.000  0.00  0.00    +0.000 A 
ATOM     20  N   UNL     1       1.126  -1.905   0.000  0.00  0.00    +0.000 NA
ATOM     21  C   UNL     1       1.841  -1.492   0.000  0.00  0.00    +0.000 A 
ATOM     22  C   UNL     1       1.841  -0.667   0.000  0.00  0.00    +0.000 A 
BRANCH  18  23
ATOM     23  C   UNL     1      -0.628  -2.532   0.000  0.00  0.00    +0.000 C 
BRANCH  23  24
ATOM     24  C   UNL     1      -1.435  -2.703   0.000  0.00  0.00    +0.000 C 
ATOM     25  O   UNL     1      -1.690  -3.488   0.000  0.00  0.00    +0.000 OA
ATOM     26  O   UNL     1      -1.987  -2.090   0.000  0.00  0.00    +0.000 OA
ENDBRANCH  23  24
ENDBRANCH  18  23
ENDBRANCH   1  14
TORSDOF 4
