REMARK  Name = QIG
REMARK  3 active torsions:
REMARK  status: ('A' for Active; 'I' for Inactive)
REMARK    1  A    between atoms: C_6  and  C_8
REMARK    2  A    between atoms: C_10  and  N_11
REMARK    3  A    between atoms: N_11  and  C_12
REMARK                            x       y       z     vdW  Elec       q    Type
REMARK                         _______ _______ _______ _____ _____    ______ ____
ROOT
ATOM      1  C   UNL     1      -1.041  -0.729   0.000  0.00  0.00    +0.000 A 
ATOM      2  N   UNL     1      -1.041   0.096   0.000  0.00  0.00    +0.000 NA
ATOM      3  C   UNL     1      -0.326   0.508   0.000  0.00  0.00    +0.000 A 
ATOM      4  C   UNL     1       0.388   0.096   0.000  0.00  0.00    +0.000 A 
ATOM      5  C   UNL     1       1.103   0.508   0.000  0.00  0.00    +0.000 A 
ATOM      6  C   UNL     1       1.817   0.096   0.000  0.00  0.00    +0.000 A 
ATOM      7  C   UNL     1       1.817  -0.729   0.000  0.00  0.00    +0.000 A 
ATOM      8  C   UNL     1       1.103  -1.142   0.000  0.00  0.00    +0.000 A 
ATOM      9  C   UNL     1       0.388  -0.729   0.000  0.00  0.00    +0.000 A 
ATOM     10  N   UNL     1      -0.326  -1.142   0.000  0.00  0.00    +0.000 NA
ENDROOT
BRANCH   1  16
ATOM     11  C   UNL     1      -2.470  -3.204   0.000  0.00  0.00    +0.000 C 
ATOM     12  C   UNL     1      -2.470  -2.379   0.000  0.00  0.00    +0.000 A 
ATOM     13  C   UNL     1      -3.184  -1.967   0.000  0.00  0.00    +0.000 A 
ATOM     14  C   UNL     1      -3.184  -1.142   0.000  0.00  0.00    +0.000 A 
ATOM     15  C   UNL     1      -2.470  -0.729   0.000  0.00  0.00    +0.000 A 
ATOM     16  C   UNL     1      -1.755  -1.142   0.000  0.00  0.00    +0.000 A 
ATOM     17  N   UNL     1      -1.755  -1.967   0.000  0.00  0.00    +0.000 NA
ENDBRANCH   1  16
BRANCH   3  18
ATOM     18  N   UNL     1      -0.326   1.333   0.000  0.00  0.00    +0.000 NA
BRANCH  18  19
ATOM     19  C   UNL     1       0.388   1.746   0.000  0.00  0.00    +0.000 A 
ATOM     20  C   UNL     1       0.388   2.571   0.000  0.00  0.00    +0.000 A 
ATOM     21  C   UNL     1       1.103   2.983   0.000  0.00  0.00    +0.000 A 
ATOM     22  C   UNL     1       1.817   2.571   0.000  0.00  0.00    +0.000 A 
ATOM     23  N   UNL     1       2.602   2.826   0.000  0.00  0.00    +0.000 NA
ATOM     24  N   UNL     1       3.087   2.158   0.000  0.00  0.00    +0.000 NA
ATOM     25  C   UNL     1       2.602   1.491   0.000  0.00  0.00    +0.000 A 
ATOM     26  C   UNL     1       1.817   1.746   0.000  0.00  0.00    +0.000 A 
ATOM     27  C   UNL     1       1.103   1.333   0.000  0.00  0.00    +0.000 A 
ENDBRANCH  18  19
ENDBRANCH   3  18
TORSDOF 3
