REMARK  Name = QMS
REMARK  2 active torsions:
REMARK  status: ('A' for Active; 'I' for Inactive)
REMARK    1  A    between atoms: S_2  and  N_5
REMARK    2  A    between atoms: N_5  and  C_6
REMARK                            x       y       z     vdW  Elec       q    Type
REMARK                         _______ _______ _______ _____ _____    ______ ____
ROOT
ATOM      1  C   UNL     1      -0.577   0.162   0.000  0.00  0.00    +0.000 A 
ATOM      2  C   UNL     1      -1.292  -0.251   0.000  0.00  0.00    +0.000 A 
ATOM      3  C   UNL     1       0.137  -0.251   0.000  0.00  0.00    +0.000 A 
ATOM      4  N   UNL     1       0.852   0.162   0.000  0.00  0.00    +0.000 NA
ATOM      5  C   UNL     1       1.566  -0.251   0.000  0.00  0.00    +0.000 A 
ATOM      6  C   UNL     1       1.566  -1.076   0.000  0.00  0.00    +0.000 A 
ATOM      7  C   UNL     1       0.852  -1.488   0.000  0.00  0.00    +0.000 A 
ATOM      8  C   UNL     1       0.137  -1.076   0.000  0.00  0.00    +0.000 A 
ATOM      9  C   UNL     1      -0.577  -1.488   0.000  0.00  0.00    +0.000 A 
ATOM     10  C   UNL     1      -1.292  -1.076   0.000  0.00  0.00    +0.000 A 
ENDROOT
BRANCH   1  11
ATOM     11  N   UNL     1      -0.577   0.987   0.000  0.00  0.00    +0.000 NA
BRANCH  11  13
ATOM     12  O   UNL     1      -2.006   1.812   0.000  0.00  0.00    +0.000 OA
ATOM     13  S   UNL     1      -1.292   1.399   0.000  0.00  0.00    +0.000 S 
ATOM     14  O   UNL     1      -1.704   0.685   0.000  0.00  0.00    +0.000 OA
ATOM     15  C   UNL     1      -0.879   2.114   0.000  0.00  0.00    +0.000 C 
ENDBRANCH  11  13
ENDBRANCH   1  11
TORSDOF 2
