REMARK  Name = QND
REMARK  1 active torsions:
REMARK  status: ('A' for Active; 'I' for Inactive)
REMARK    1  A    between atoms: CA_2  and  C_11
REMARK                            x       y       z     vdW  Elec       q    Type
REMARK                         _______ _______ _______ _____ _____    ______ ____
ROOT
ATOM      1  N   UNL     1      -0.387  -0.791   0.000  0.00  0.00    +0.000 NA
ATOM      2  CA  UNL     1      -1.101  -0.379   0.000  0.00  0.00    +0.000 A 
ATOM      3  C   UNL     1      -1.101   0.446   0.000  0.00  0.00    +0.000 A 
ATOM      4  C   UNL     1      -0.387   0.859   0.000  0.00  0.00    +0.000 A 
ATOM      5  C   UNL     1       1.042   0.859   0.000  0.00  0.00    +0.000 A 
ATOM      6  C   UNL     1       1.757   0.446   0.000  0.00  0.00    +0.000 A 
ATOM      7  C   UNL     1       1.757  -0.379   0.000  0.00  0.00    +0.000 A 
ATOM      8  C   UNL     1       1.042  -0.791   0.000  0.00  0.00    +0.000 A 
ATOM      9  C   UNL     1       0.328   0.446   0.000  0.00  0.00    +0.000 A 
ATOM     10  C   UNL     1       0.328  -0.379   0.000  0.00  0.00    +0.000 A 
ENDROOT
BRANCH   2  11
ATOM     11  C   UNL     1      -1.816  -0.791   0.000  0.00  0.00    +0.000 C 
ATOM     12  O   UNL     1      -1.816  -1.616   0.000  0.00  0.00    +0.000 OA
ATOM     13  OXT UNL     1      -2.530  -0.379   0.000  0.00  0.00    +0.000 OA
ENDBRANCH   2  11
TORSDOF 1
