REMARK  Name = QPP
REMARK  2 active torsions:
REMARK  status: ('A' for Active; 'I' for Inactive)
REMARK    1  A    between atoms: C_6  and  C_7
REMARK    2  A    between atoms: C_16  and  N_17
REMARK                            x       y       z     vdW  Elec       q    Type
REMARK                         _______ _______ _______ _____ _____    ______ ____
ROOT
ATOM      1  C   UNL     1       3.007   1.069   0.000  0.00  0.00    +0.000 A 
ATOM      2  N   UNL     1       3.007   0.244   0.000  0.00  0.00    +0.000 NA
ATOM      3  N   UNL     1       3.721   1.481   0.000  0.00  0.00    +0.000 NA
ATOM      4  C   UNL     1       4.436   1.069   0.000  0.00  0.00    +0.000 A 
ATOM      5  C   UNL     1       5.150   1.481   0.000  0.00  0.00    +0.000 A 
ATOM      6  C   UNL     1       5.865   1.069   0.000  0.00  0.00    +0.000 A 
ATOM      7  C   UNL     1       5.865   0.244   0.000  0.00  0.00    +0.000 A 
ATOM      8  C   UNL     1       5.150  -0.169   0.000  0.00  0.00    +0.000 A 
ATOM      9  C   UNL     1       4.436   0.244   0.000  0.00  0.00    +0.000 A 
ATOM     10  C   UNL     1       3.721  -0.169   0.000  0.00  0.00    +0.000 A 
ENDROOT
BRANCH  10  11
ATOM     11  N   UNL     1       3.721  -0.994   0.000  0.00  0.00    +0.000 NA
ATOM     12  C   UNL     1       3.007  -1.406   0.000  0.00  0.00    +0.000 A 
ATOM     13  C   UNL     1       2.921  -2.227   0.000  0.00  0.00    +0.000 A 
ATOM     14  C   UNL     1       2.114  -2.398   0.000  0.00  0.00    +0.000 A 
ATOM     15  C   UNL     1       1.778  -3.152   0.000  0.00  0.00    +0.000 C 
ATOM     16  N   UNL     1       1.701  -1.684   0.000  0.00  0.00    +0.000 NA
ATOM     17  N   UNL     1       2.253  -1.071   0.000  0.00  0.00    +0.000 NA
ENDBRANCH  10  11
BRANCH   1  23
ATOM     18  C   UNL     1       1.578   1.069   0.000  0.00  0.00    +0.000 A 
ATOM     19  C   UNL     1       0.863   1.481   0.000  0.00  0.00    +0.000 A 
ATOM     20  C   UNL     1       0.863   2.306   0.000  0.00  0.00    +0.000 A 
ATOM     21  C   UNL     1       1.578   2.719   0.000  0.00  0.00    +0.000 A 
ATOM     22  C   UNL     1       2.292   2.306   0.000  0.00  0.00    +0.000 A 
ATOM     23  C   UNL     1       2.292   1.481   0.000  0.00  0.00    +0.000 A 
ENDBRANCH   1  23
TORSDOF 2
