REMARK  Name = QUA
REMARK  2 active torsions:
REMARK  status: ('A' for Active; 'I' for Inactive)
REMARK    1  A    between atoms: C_2  and  CA_3
REMARK    2  A    between atoms: C_7  and  C_12
REMARK                            x       y       z     vdW  Elec       q    Type
REMARK                         _______ _______ _______ _____ _____    ______ ____
ROOT
ATOM      1  CA  UNL     1      -0.594   1.124   0.000  0.00  0.00    +0.000 A 
ATOM      2  N   UNL     1       0.120   1.536   0.000  0.00  0.00    +0.000 NA
ATOM      3  C   UNL     1      -0.594   0.299   0.000  0.00  0.00    +0.000 A 
ATOM      4  C   UNL     1       0.835   1.124   0.000  0.00  0.00    +0.000 A 
ATOM      5  C   UNL     1       0.120  -0.114   0.000  0.00  0.00    +0.000 A 
ATOM      6  C   UNL     1       1.549   1.536   0.000  0.00  0.00    +0.000 C 
ATOM      7  C   UNL     1       0.835   0.299   0.000  0.00  0.00    +0.000 A 
ATOM      8  O   UNL     1       1.549   2.361   0.000  0.00  0.00    +0.000 OA
ATOM      9  C   UNL     1       2.264   1.124   0.000  0.00  0.00    +0.000 C 
ATOM     10  C   UNL     1       1.549  -0.114   0.000  0.00  0.00    +0.000 C 
ATOM     11  C   UNL     1       2.264   0.299   0.000  0.00  0.00    +0.000 C 
ENDROOT
BRANCH   1  13
ATOM     12  O   UNL     1      -2.023   1.124   0.000  0.00  0.00    +0.000 OA
ATOM     13  C   UNL     1      -1.308   1.536   0.000  0.00  0.00    +0.000 C 
ATOM     14  OXT UNL     1      -1.308   2.361   0.000  0.00  0.00    +0.000 OA
ENDBRANCH   1  13
BRANCH   5  15
ATOM     15  C   UNL     1       0.120  -0.939   0.000  0.00  0.00    +0.000 C 
ATOM     16  O   UNL     1       0.835  -1.351   0.000  0.00  0.00    +0.000 OA
ATOM     17  C   UNL     1      -0.594  -1.351   0.000  0.00  0.00    +0.000 C 
ENDBRANCH   5  15
TORSDOF 2
