REMARK  Name = QUE
REMARK  1 active torsions:
REMARK  status: ('A' for Active; 'I' for Inactive)
REMARK    1  A    between atoms: C_9  and  C_10
REMARK                            x       y       z     vdW  Elec       q    Type
REMARK                         _______ _______ _______ _____ _____    ______ ____
ROOT
ATOM      1  C   UNL     1      -2.603  -0.774   0.000  0.00  0.00    +0.000 A 
ATOM      2  C   UNL     1      -1.888  -1.186   0.000  0.00  0.00    +0.000 A 
ATOM      3  C   UNL     1      -1.174  -0.774   0.000  0.00  0.00    +0.000 A 
ATOM      4  C   UNL     1      -1.174   0.051   0.000  0.00  0.00    +0.000 A 
ATOM      5  C   UNL     1      -1.888   0.464   0.000  0.00  0.00    +0.000 A 
ATOM      6  C   UNL     1      -2.603   0.051   0.000  0.00  0.00    +0.000 A 
ATOM      7  C   UNL     1      -0.460  -1.186   0.000  0.00  0.00    +0.000 A 
ATOM      8  C   UNL     1       0.255  -0.774   0.000  0.00  0.00    +0.000 A 
ATOM      9  C   UNL     1       0.255   0.051   0.000  0.00  0.00    +0.000 A 
ATOM     10  O   UNL     1      -0.460   0.464   0.000  0.00  0.00    +0.000 OA
ATOM     11  O   UNL     1      -0.460  -2.011   0.000  0.00  0.00    +0.000 OA
ATOM     12  O   UNL     1       0.970  -1.186   0.000  0.00  0.00    +0.000 OA
ATOM     13  O   UNL     1      -3.317   0.464   0.000  0.00  0.00    +0.000 OA
ATOM     14  O   UNL     1      -1.888  -2.011   0.000  0.00  0.00    +0.000 OA
ENDROOT
BRANCH   9  15
ATOM     15  C   UNL     1       0.970   0.464   0.000  0.00  0.00    +0.000 A 
ATOM     16  C   UNL     1       0.970   1.289   0.000  0.00  0.00    +0.000 A 
ATOM     17  C   UNL     1       1.684   1.701   0.000  0.00  0.00    +0.000 A 
ATOM     18  C   UNL     1       2.398   1.289   0.000  0.00  0.00    +0.000 A 
ATOM     19  C   UNL     1       2.398   0.464   0.000  0.00  0.00    +0.000 A 
ATOM     20  C   UNL     1       1.684   0.051   0.000  0.00  0.00    +0.000 A 
ATOM     21  O   UNL     1       3.113   0.051   0.000  0.00  0.00    +0.000 OA
ATOM     22  O   UNL     1       3.113   1.701   0.000  0.00  0.00    +0.000 OA
ENDBRANCH   9  15
TORSDOF 1
