REMARK  Name = QYT
REMARK  1 active torsions:
REMARK  status: ('A' for Active; 'I' for Inactive)
REMARK    1  A    between atoms: C_3  and  C_11
REMARK                            x       y       z     vdW  Elec       q    Type
REMARK                         _______ _______ _______ _____ _____    ______ ____
ROOT
ATOM      1  C   UNL     1      -0.088   1.562   0.000  0.00  0.00    +0.000 A 
ATOM      2  C   UNL     1      -0.802   1.149   0.000  0.00  0.00    +0.000 A 
ATOM      3  C   UNL     1      -0.802   0.324   0.000  0.00  0.00    +0.000 A 
ATOM      4  C   UNL     1       0.627   0.324   0.000  0.00  0.00    +0.000 A 
ATOM      5  C   UNL     1       0.627   1.149   0.000  0.00  0.00    +0.000 A 
ATOM      6  C   UNL     1       2.056   1.149   0.000  0.00  0.00    +0.000 A 
ATOM      7  N   UNL     1       1.341  -0.088   0.000  0.00  0.00    +0.000 NA
ATOM      8  C   UNL     1      -0.088  -0.088   0.000  0.00  0.00    +0.000 A 
ATOM      9  N   UNL     1       1.341   1.562   0.000  0.00  0.00    +0.000 NA
ATOM     10  C   UNL     1       2.056   0.324   0.000  0.00  0.00    +0.000 A 
ENDROOT
BRANCH   3  13
ATOM     11  C   UNL     1      -2.184  -1.398   0.000  0.00  0.00    +0.000 C 
ATOM     12  C   UNL     1      -1.104  -2.183   0.000  0.00  0.00    +0.000 C 
ATOM     13  C   UNL     1      -1.517  -0.088   0.000  0.00  0.00    +0.000 C 
ATOM     14  C   UNL     1      -1.517  -0.913   0.000  0.00  0.00    +0.000 C 
ATOM     15  S   UNL     1      -0.849  -1.398   0.000  0.00  0.00    +0.000 S 
ATOM     16  N   UNL     1      -1.929  -2.183   0.000  0.00  0.00    +0.000 NA
ATOM     17  O   UNL     1      -2.969  -1.143   0.000  0.00  0.00    +0.000 OA
ATOM     18  O   UNL     1      -0.619  -2.850   0.000  0.00  0.00    +0.000 OA
ENDBRANCH   3  13
TORSDOF 1
