REMARK  Name = R04
REMARK  8 active torsions:
REMARK  status: ('A' for Active; 'I' for Inactive)
REMARK    1  A    between atoms: C_2  and  C_3
REMARK    2  A    between atoms: C_3  and  N_4
REMARK    3  A    between atoms: N_4  and  C_5
REMARK    4  A    between atoms: C_5  and  C_6
REMARK    5  A    between atoms: C_7  and  C_8
REMARK    6  A    between atoms: C_8  and  O_9
REMARK    7  A    between atoms: O_9  and  C_10
REMARK    8  A    between atoms: C_15  and  C_19
REMARK                            x       y       z     vdW  Elec       q    Type
REMARK                         _______ _______ _______ _____ _____    ______ ____
ROOT
ATOM      1  C   UNL     1       0.241  -0.016   0.000  0.00  0.00    +0.000 A 
ATOM      2  C   UNL     1       0.241   0.809   0.000  0.00  0.00    +0.000 A 
ATOM      3  C   UNL     1       0.956   1.221   0.000  0.00  0.00    +0.000 A 
ATOM      4  N   UNL     1       1.127   2.028   0.000  0.00  0.00    +0.000 N 
ATOM      5  N   UNL     1       1.948   2.114   0.000  0.00  0.00    +0.000 NA
ATOM      6  C   UNL     1       2.283   1.361   0.000  0.00  0.00    +0.000 A 
ATOM      7  C   UNL     1       1.670   0.809   0.000  0.00  0.00    +0.000 A 
ATOM      8  C   UNL     1       1.670  -0.016   0.000  0.00  0.00    +0.000 A 
ATOM      9  C   UNL     1       0.956  -0.429   0.000  0.00  0.00    +0.000 A 
ATOM     10  F   UNL     1       0.956  -1.254   0.000  0.00  0.00    +0.000 F 
ATOM     11  C   UNL     1       0.575   2.641   0.000  0.00  0.00    +0.000 C 
ENDROOT
BRANCH   6  12
ATOM     12  C   UNL     1       3.090   1.189   0.000  0.00  0.00    +0.000 A 
ATOM     13  C   UNL     1       3.642   1.802   0.000  0.00  0.00    +0.000 A 
ATOM     14  C   UNL     1       4.449   1.631   0.000  0.00  0.00    +0.000 A 
ATOM     15  C   UNL     1       4.704   0.846   0.000  0.00  0.00    +0.000 A 
ATOM     16  C   UNL     1       4.152   0.233   0.000  0.00  0.00    +0.000 A 
ATOM     17  C   UNL     1       3.345   0.405   0.000  0.00  0.00    +0.000 A 
ATOM     18 BR   UNL     1       5.511   0.674   0.000  0.00  0.00    +0.000 Br
ENDBRANCH   6  12
BRANCH   1  19
ATOM     19  O   UNL     1      -0.473  -0.429   0.000  0.00  0.00    +0.000 OA
BRANCH  19  20
ATOM     20  C   UNL     1      -0.473  -1.254   0.000  0.00  0.00    +0.000 C 
BRANCH  20  22
ATOM     21  C   UNL     1      -1.902  -1.254   0.000  0.00  0.00    +0.000 C 
ATOM     22  C   UNL     1      -1.188  -1.666   0.000  0.00  0.00    +0.000 C 
BRANCH  21  23
ATOM     23  C   UNL     1      -2.616  -1.666   0.000  0.00  0.00    +0.000 C 
BRANCH  23  24
ATOM     24  N   UNL     1      -3.331  -1.254   0.000  0.00  0.00    +0.000 NA
ATOM     25  C   UNL     1      -3.331  -0.429   0.000  0.00  0.00    +0.000 C 
BRANCH  24  26
ATOM     26  C   UNL     1      -4.045  -1.666   0.000  0.00  0.00    +0.000 C 
BRANCH  26  28
ATOM     27  C   UNL     1      -5.474  -1.666   0.000  0.00  0.00    +0.000 C 
ATOM     28  C   UNL     1      -4.760  -1.254   0.000  0.00  0.00    +0.000 C 
ENDBRANCH  26  28
ENDBRANCH  24  26
ENDBRANCH  23  24
ENDBRANCH  21  23
ENDBRANCH  20  22
ENDBRANCH  19  20
ENDBRANCH   1  19
TORSDOF 8
