REMARK  Name = R18
REMARK  0 active torsions:
REMARK  status: ('A' for Active; 'I' for Inactive)
REMARK                            x       y       z     vdW  Elec       q    Type
REMARK                         _______ _______ _______ _____ _____    ______ ____
ROOT
ATOM      1  C   UNL     1       1.923  -0.639   0.000  0.00  0.00    +0.000 C 
ATOM      2  C   UNL     1       2.736  -0.494   0.000  0.00  0.00    +0.000 C 
ATOM      3  C   UNL     1       3.016   0.282   0.000  0.00  0.00    +0.000 C 
ATOM      4  C   UNL     1       2.484   0.913   0.000  0.00  0.00    +0.000 C 
ATOM      5  C   UNL     1       1.672   0.768   0.000  0.00  0.00    +0.000 C 
ATOM      6  C   UNL     1       1.140   1.398   0.000  0.00  0.00    +0.000 C 
ATOM      7  C   UNL     1       0.328   1.253   0.000  0.00  0.00    +0.000 C 
ATOM      8  C   UNL     1       0.048   0.477   0.000  0.00  0.00    +0.000 C 
ATOM      9  C   UNL     1       0.580  -0.153   0.000  0.00  0.00    +0.000 C 
ATOM     10  C   UNL     1       1.392  -0.008   0.000  0.00  0.00    +0.000 C 
ATOM     11  C   UNL     1       0.299  -0.929   0.000  0.00  0.00    +0.000 C 
ATOM     12  C   UNL     1      -0.513  -1.075   0.000  0.00  0.00    +0.000 C 
ATOM     13  C   UNL     1      -1.045  -0.444   0.000  0.00  0.00    +0.000 C 
ATOM     14  C   UNL     1      -0.764   0.332   0.000  0.00  0.00    +0.000 C 
ATOM     15  C   UNL     1      -1.416   0.838   0.000  0.00  0.00    +0.000 C 
ATOM     16  C   UNL     1      -2.099   0.376   0.000  0.00  0.00    +0.000 C 
ATOM     17  C   UNL     1      -1.869  -0.417   0.000  0.00  0.00    +0.000 C 
ATOM     18  C   UNL     1      -1.405  -1.186   0.000  0.00  0.00    +0.000 C 
ATOM     19  C   UNL     1      -1.991  -1.233   0.000  0.00  0.00    +0.000 C 
ATOM     20  O   UNL     1       3.828   0.427   0.000  0.00  0.00    +0.000 OA
ATOM     21  O   UNL     1      -2.630  -0.736   0.000  0.00  0.00    +0.000 OA
ENDROOT
TORSDOF 0
