REMARK  Name = R22
REMARK  6 active torsions:
REMARK  status: ('A' for Active; 'I' for Inactive)
REMARK    1  A    between atoms: C_1  and  O_7
REMARK    2  A    between atoms: O_7  and  C_13
REMARK    3  A    between atoms: C_14  and  C_19
REMARK    4  A    between atoms: C_19  and  S_20
REMARK    5  A    between atoms: S_20  and  C_21
REMARK    6  A    between atoms: C_21  and  C_22
REMARK                            x       y       z     vdW  Elec       q    Type
REMARK                         _______ _______ _______ _____ _____    ______ ____
ROOT
ATOM      1  N   UNL     1      -1.310  -0.141   0.000  0.00  0.00    +0.000 NA
ATOM      2  C   UNL     1      -1.310   0.684   0.000  0.00  0.00    +0.000 A 
ATOM      3  C   UNL     1      -0.595   1.097   0.000  0.00  0.00    +0.000 A 
ATOM      4  C   UNL     1       0.119   0.684   0.000  0.00  0.00    +0.000 A 
ATOM      5  C   UNL     1       0.119  -0.141   0.000  0.00  0.00    +0.000 A 
ATOM      6  C   UNL     1      -0.595  -0.553   0.000  0.00  0.00    +0.000 A 
ATOM      7  C   UNL     1      -0.595  -1.378   0.000  0.00  0.00    +0.000 C 
ATOM      8  O   UNL     1      -2.024   1.097   0.000  0.00  0.00    +0.000 OA
ATOM      9  I   UNL     1      -0.595   1.922   0.000  0.00  0.00    +0.000 I 
ENDROOT
BRANCH   4  10
ATOM     10  O   UNL     1       0.834   1.097   0.000  0.00  0.00    +0.000 OA
BRANCH  10  11
ATOM     11  C   UNL     1       0.834   1.922   0.000  0.00  0.00    +0.000 A 
ATOM     12  C   UNL     1       0.119   2.334   0.000  0.00  0.00    +0.000 A 
ATOM     13  C   UNL     1       0.119   3.159   0.000  0.00  0.00    +0.000 A 
ATOM     14  C   UNL     1       0.834   3.572   0.000  0.00  0.00    +0.000 A 
ATOM     15  C   UNL     1       1.548   3.159   0.000  0.00  0.00    +0.000 A 
ATOM     16  C   UNL     1       1.548   2.334   0.000  0.00  0.00    +0.000 A 
ATOM     17  C   UNL     1      -0.595   3.572   0.000  0.00  0.00    +0.000 C 
ATOM     18  C   UNL     1       2.263   3.572   0.000  0.00  0.00    +0.000 C 
ENDBRANCH  10  11
ENDBRANCH   4  10
BRANCH   5  19
ATOM     19  C   UNL     1       0.834  -0.553   0.000  0.00  0.00    +0.000 C 
BRANCH  19  20
ATOM     20  S   UNL     1       0.834  -1.378   0.000  0.00  0.00    +0.000 S 
BRANCH  20  21
ATOM     21  C   UNL     1       1.548  -1.791   0.000  0.00  0.00    +0.000 C 
BRANCH  21  22
ATOM     22  C   UNL     1       1.548  -2.616   0.000  0.00  0.00    +0.000 A 
ATOM     23  O   UNL     1       2.216  -3.101   0.000  0.00  0.00    +0.000 OA
ATOM     24  C   UNL     1       1.961  -3.885   0.000  0.00  0.00    +0.000 A 
ATOM     25  C   UNL     1       1.136  -3.885   0.000  0.00  0.00    +0.000 A 
ATOM     26  C   UNL     1       0.881  -3.101   0.000  0.00  0.00    +0.000 A 
ENDBRANCH  21  22
ENDBRANCH  20  21
ENDBRANCH  19  20
ENDBRANCH   5  19
TORSDOF 6
