REMARK  Name = R64
REMARK  9 active torsions:
REMARK  status: ('A' for Active; 'I' for Inactive)
REMARK    1  A    between atoms: C_2  and  C_10
REMARK    2  A    between atoms: C_5  and  O_19
REMARK    3  A    between atoms: C_10  and  C_12
REMARK    4  A    between atoms: O_19  and  C_20
REMARK    5  A    between atoms: C_20  and  C_21
REMARK    6  A    between atoms: C_21  and  C_22
REMARK    7  A    between atoms: C_22  and  N_23
REMARK    8  A    between atoms: N_23  and  C_24
REMARK    9  A    between atoms: C_24  and  C_25
REMARK                            x       y       z     vdW  Elec       q    Type
REMARK                         _______ _______ _______ _____ _____    ______ ____
ROOT
ATOM      1  O   UNL     1      -2.237   1.059   0.000  0.00  0.00    +0.000 OA
ATOM      2  C   UNL     1      -1.417   1.145   0.000  0.00  0.00    +0.000 A 
ATOM      3  C   UNL     1      -1.081   0.392   0.000  0.00  0.00    +0.000 A 
ATOM      4  C   UNL     1      -1.694  -0.160   0.000  0.00  0.00    +0.000 A 
ATOM      5  C   UNL     1      -1.694  -0.985   0.000  0.00  0.00    +0.000 A 
ATOM      6  C   UNL     1      -2.409  -1.398   0.000  0.00  0.00    +0.000 A 
ATOM      7  C   UNL     1      -3.123  -0.985   0.000  0.00  0.00    +0.000 A 
ATOM      8  C   UNL     1      -3.123  -0.160   0.000  0.00  0.00    +0.000 A 
ATOM      9  C   UNL     1      -2.409   0.252   0.000  0.00  0.00    +0.000 A 
ATOM     10  C   UNL     1      -0.275   0.220   0.000  0.00  0.00    +0.000 C 
ENDROOT
BRANCH   2  11
ATOM     11  C   UNL     1      -1.004   1.860   0.000  0.00  0.00    +0.000 C 
ATOM     12  O   UNL     1      -0.179   1.860   0.000  0.00  0.00    +0.000 OA
BRANCH  11  13
ATOM     13  C   UNL     1      -1.417   2.574   0.000  0.00  0.00    +0.000 A 
ATOM     14  N   UNL     1      -2.237   2.660   0.000  0.00  0.00    +0.000 N 
ATOM     15  C   UNL     1      -2.789   2.047   0.000  0.00  0.00    +0.000 C 
ATOM     16  C   UNL     1      -2.409   3.467   0.000  0.00  0.00    +0.000 A 
ATOM     17  C   UNL     1      -1.694   3.880   0.000  0.00  0.00    +0.000 A 
ATOM     18  N   UNL     1      -1.081   3.328   0.000  0.00  0.00    +0.000 NA
ENDBRANCH  11  13
ENDBRANCH   2  11
BRANCH   5  19
ATOM     19  O   UNL     1      -0.980  -1.398   0.000  0.00  0.00    +0.000 OA
BRANCH  19  20
ATOM     20  C   UNL     1      -0.266  -0.985   0.000  0.00  0.00    +0.000 C 
BRANCH  20  21
ATOM     21  C   UNL     1       0.449  -1.398   0.000  0.00  0.00    +0.000 C 
BRANCH  21  22
ATOM     22  C   UNL     1       1.163  -0.985   0.000  0.00  0.00    +0.000 C 
BRANCH  22  23
ATOM     23  N   UNL     1       1.878  -1.398   0.000  0.00  0.00    +0.000 NA
BRANCH  23  24
ATOM     24  C   UNL     1       2.592  -0.985   0.000  0.00  0.00    +0.000 C 
BRANCH  24  25
ATOM     25  C   UNL     1       3.307  -1.398   0.000  0.00  0.00    +0.000 A 
ATOM     26  C   UNL     1       4.021  -0.985   0.000  0.00  0.00    +0.000 A 
ATOM     27  C   UNL     1       4.736  -1.398   0.000  0.00  0.00    +0.000 A 
ATOM     28  C   UNL     1       4.736  -2.223   0.000  0.00  0.00    +0.000 A 
ATOM     29  N   UNL     1       4.021  -2.635   0.000  0.00  0.00    +0.000 NA
ATOM     30  C   UNL     1       3.307  -2.223   0.000  0.00  0.00    +0.000 A 
ENDBRANCH  24  25
ENDBRANCH  23  24
ENDBRANCH  22  23
ENDBRANCH  21  22
ENDBRANCH  20  21
ENDBRANCH  19  20
ENDBRANCH   5  19
TORSDOF 9
