REMARK  Name = R88
REMARK  8 active torsions:
REMARK  status: ('A' for Active; 'I' for Inactive)
REMARK    1  A    between atoms: C_1  and  C_2
REMARK    2  A    between atoms: C_2  and  C_4
REMARK    3  A    between atoms: C_7  and  O_21
REMARK    4  A    between atoms: C_8  and  C_9
REMARK    5  A    between atoms: C_8  and  O_21
REMARK    6  A    between atoms: C_10  and  C_11
REMARK    7  A    between atoms: C_11  and  N_12
REMARK    8  A    between atoms: N_12  and  C_14
REMARK                            x       y       z     vdW  Elec       q    Type
REMARK                         _______ _______ _______ _____ _____    ______ ____
ROOT
ATOM      1  C   UNL     1       0.608   2.308   0.000  0.00  0.00    +0.000 A 
ATOM      2  C   UNL     1       1.323   1.895   0.000  0.00  0.00    +0.000 A 
ATOM      3  C   UNL     1       1.323   1.070   0.000  0.00  0.00    +0.000 A 
ATOM      4  C   UNL     1       0.608   0.658   0.000  0.00  0.00    +0.000 A 
ATOM      5  C   UNL     1      -0.106   1.070   0.000  0.00  0.00    +0.000 A 
ATOM      6  C   UNL     1      -0.106   1.895   0.000  0.00  0.00    +0.000 A 
ENDROOT
BRANCH   1   7
ATOM      7  C   UNL     1       0.608   3.133   0.000  0.00  0.00    +0.000 C 
ATOM      8  O   UNL     1      -0.106   3.545   0.000  0.00  0.00    +0.000 OA
BRANCH   7   9
ATOM      9  C   UNL     1       1.323   3.545   0.000  0.00  0.00    +0.000 A 
ATOM     10  C   UNL     1       1.323   4.370   0.000  0.00  0.00    +0.000 A 
ATOM     11  C   UNL     1       2.037   4.783   0.000  0.00  0.00    +0.000 A 
ATOM     12  C   UNL     1       2.752   4.370   0.000  0.00  0.00    +0.000 A 
ATOM     13 BR   UNL     1       3.466   4.783   0.000  0.00  0.00    +0.000 Br
ATOM     14  C   UNL     1       2.752   3.545   0.000  0.00  0.00    +0.000 A 
ATOM     15  C   UNL     1       2.037   3.133   0.000  0.00  0.00    +0.000 A 
ENDBRANCH   7   9
ENDBRANCH   1   7
BRANCH   4  16
ATOM     16  O   UNL     1       0.608  -0.167   0.000  0.00  0.00    +0.000 OA
BRANCH  16  17
ATOM     17  C   UNL     1      -0.106  -0.580   0.000  0.00  0.00    +0.000 C 
BRANCH  17  18
ATOM     18  C   UNL     1      -0.106  -1.405   0.000  0.00  0.00    +0.000 C 
ATOM     19  C   UNL     1      -0.821  -1.817   0.000  0.00  0.00    +0.000 C 
BRANCH  19  20
ATOM     20  C   UNL     1      -0.821  -2.642   0.000  0.00  0.00    +0.000 C 
BRANCH  20  21
ATOM     21  N   UNL     1      -1.535  -3.055   0.000  0.00  0.00    +0.000 NA
ATOM     22  C   UNL     1      -2.250  -2.642   0.000  0.00  0.00    +0.000 C 
BRANCH  21  23
ATOM     23  C   UNL     1      -1.535  -3.880   0.000  0.00  0.00    +0.000 C 
ATOM     24  C   UNL     1      -1.123  -4.594   0.000  0.00  0.00    +0.000 C 
ATOM     25  C   UNL     1      -1.948  -4.594   0.000  0.00  0.00    +0.000 C 
ENDBRANCH  21  23
ENDBRANCH  20  21
ENDBRANCH  19  20
ENDBRANCH  17  18
ENDBRANCH  16  17
ENDBRANCH   4  16
TORSDOF 8
