REMARK  Name = R8D
REMARK  6 active torsions:
REMARK  status: ('A' for Active; 'I' for Inactive)
REMARK    1  A    between atoms: C_3  and  O_4
REMARK    2  A    between atoms: O_4  and  C_5
REMARK    3  A    between atoms: C_7  and  C_8
REMARK    4  A    between atoms: C_16  and  O_18
REMARK    5  A    between atoms: O_18  and  C_19
REMARK    6  A    between atoms: C_19  and  C_20
REMARK                            x       y       z     vdW  Elec       q    Type
REMARK                         _______ _______ _______ _____ _____    ______ ____
ROOT
ATOM      1 CL   UNL     1      -0.515  -2.071   0.000  0.00  0.00    +0.000 Cl
ATOM      2  C   UNL     1      -0.260  -1.287   0.000  0.00  0.00    +0.000 A 
ATOM      3  C   UNL     1      -0.812  -0.674   0.000  0.00  0.00    +0.000 A 
ATOM      4  C   UNL     1       0.547  -1.115   0.000  0.00  0.00    +0.000 A 
ATOM      5  C   UNL     1       0.802  -0.331   0.000  0.00  0.00    +0.000 A 
ATOM      6  C   UNL     1       0.250   0.282   0.000  0.00  0.00    +0.000 A 
ATOM      7  C   UNL     1      -0.557   0.111   0.000  0.00  0.00    +0.000 A 
ENDROOT
BRANCH   3   8
ATOM      8  O   UNL     1      -1.619  -0.845   0.000  0.00  0.00    +0.000 OA
BRANCH   8   9
ATOM      9  C   UNL     1      -1.874  -1.630   0.000  0.00  0.00    +0.000 A 
ATOM     10  C   UNL     1      -1.322  -2.243   0.000  0.00  0.00    +0.000 A 
ATOM     11  C   UNL     1      -1.577  -3.028   0.000  0.00  0.00    +0.000 A 
ATOM     12  C   UNL     1      -2.681  -1.802   0.000  0.00  0.00    +0.000 A 
ATOM     13  C   UNL     1      -2.936  -2.586   0.000  0.00  0.00    +0.000 A 
ATOM     14 CL   UNL     1      -3.743  -2.758   0.000  0.00  0.00    +0.000 Cl
ATOM     15  C   UNL     1      -2.384  -3.199   0.000  0.00  0.00    +0.000 A 
BRANCH  11  16
ATOM     16  C   UNL     1      -1.025  -3.641   0.000  0.00  0.00    +0.000 C 
ATOM     17  N   UNL     1      -0.473  -4.254   0.000  0.00  0.00    +0.000 NA
ENDBRANCH  11  16
ENDBRANCH   8   9
ENDBRANCH   3   8
BRANCH   6  18
ATOM     18  O   UNL     1       0.505   1.067   0.000  0.00  0.00    +0.000 OA
BRANCH  18  19
ATOM     19  C   UNL     1       1.312   1.238   0.000  0.00  0.00    +0.000 C 
BRANCH  19  20
ATOM     20  C   UNL     1       1.567   2.023   0.000  0.00  0.00    +0.000 A 
ATOM     21  N   UNL     1       1.082   2.691   0.000  0.00  0.00    +0.000 NA
ATOM     22  N   UNL     1       1.567   3.358   0.000  0.00  0.00    +0.000 NA
ATOM     23  C   UNL     1       2.351   3.103   0.000  0.00  0.00    +0.000 A 
ATOM     24  N   UNL     1       3.066   3.516   0.000  0.00  0.00    +0.000 NA
ATOM     25  C   UNL     1       3.780   3.103   0.000  0.00  0.00    +0.000 A 
ATOM     26  C   UNL     1       3.780   2.278   0.000  0.00  0.00    +0.000 A 
ATOM     27  C   UNL     1       3.066   1.866   0.000  0.00  0.00    +0.000 A 
ATOM     28  C   UNL     1       2.351   2.278   0.000  0.00  0.00    +0.000 A 
ENDBRANCH  19  20
ENDBRANCH  18  19
ENDBRANCH   6  18
TORSDOF 6
