REMARK  Name = R99
REMARK  11 active torsions:
REMARK  status: ('A' for Active; 'I' for Inactive)
REMARK    1  A    between atoms: C_1  and  C_4
REMARK    2  A    between atoms: C_4  and  C_5
REMARK    3  A    between atoms: C_5  and  C_7
REMARK    4  A    between atoms: N_9  and  C_10
REMARK    5  A    between atoms: C_10  and  C_11
REMARK    6  A    between atoms: C_10  and  C_19
REMARK    7  A    between atoms: C_11  and  C_12
REMARK    8  A    between atoms: C_12  and  C_13
REMARK    9  A    between atoms: N_20  and  C_21
REMARK   10  A    between atoms: C_21  and  C_22
REMARK   11  A    between atoms: C_22  and  C_23
REMARK                            x       y       z     vdW  Elec       q    Type
REMARK                         _______ _______ _______ _____ _____    ______ ____
ROOT
ATOM      1  C   UNL     1      -0.893  -0.341   0.000  0.00  0.00    +0.000 C 
ENDROOT
BRANCH   1   4
ATOM      2  C   UNL     1      -2.040   0.510   0.000  0.00  0.00    +0.000 C 
ATOM      3  O   UNL     1      -1.548   1.173   0.000  0.00  0.00    +0.000 OA
ATOM      4  N   UNL     1      -1.712  -0.247   0.000  0.00  0.00    +0.000 NA
BRANCH   2   5
ATOM      5  C   UNL     1      -2.860   0.605   0.000  0.00  0.00    +0.000 C 
ATOM      6  O   UNL     1      -3.352  -0.057   0.000  0.00  0.00    +0.000 OA
BRANCH   5   7
ATOM      7  C   UNL     1      -3.188   1.362   0.000  0.00  0.00    +0.000 C 
BRANCH   7   8
ATOM      8  C   UNL     1      -4.007   1.457   0.000  0.00  0.00    +0.000 C 
ATOM      9  O   UNL     1      -4.335   2.214   0.000  0.00  0.00    +0.000 OA
ATOM     10  O   UNL     1      -4.499   0.794   0.000  0.00  0.00    +0.000 OA
ENDBRANCH   7   8
ENDBRANCH   5   7
ENDBRANCH   2   5
ENDBRANCH   1   4
BRANCH   1  11
ATOM     11  C   UNL     1      -0.401   0.321   0.000  0.00  0.00    +0.000 C 
ATOM     12  N   UNL     1       0.418   0.227   0.000  0.00  0.00    +0.000 NA
ATOM     13  O   UNL     1      -0.729   1.078   0.000  0.00  0.00    +0.000 OA
BRANCH  12  14
ATOM     14  C   UNL     1       0.910   0.889   0.000  0.00  0.00    +0.000 C 
BRANCH  14  15
ATOM     15  C   UNL     1       1.730   0.794   0.000  0.00  0.00    +0.000 C 
BRANCH  15  16
ATOM     16  C   UNL     1       2.221   1.457   0.000  0.00  0.00    +0.000 C 
ATOM     17  C   UNL     1       1.894   2.214   0.000  0.00  0.00    +0.000 C 
ATOM     18  C   UNL     1       3.041   1.362   0.000  0.00  0.00    +0.000 C 
ENDBRANCH  15  16
ENDBRANCH  14  15
ENDBRANCH  12  14
ENDBRANCH   1  11
BRANCH   1  19
ATOM     19  C   UNL     1      -0.565  -1.098   0.000  0.00  0.00    +0.000 C 
BRANCH  19  20
ATOM     20  C   UNL     1       0.255  -1.193   0.000  0.00  0.00    +0.000 C 
BRANCH  20  21
ATOM     21  C   UNL     1       0.582  -1.950   0.000  0.00  0.00    +0.000 A 
ATOM     22  C   UNL     1       1.402  -2.045   0.000  0.00  0.00    +0.000 A 
ATOM     23  C   UNL     1       1.730  -2.802   0.000  0.00  0.00    +0.000 A 
ATOM     24  C   UNL     1       1.238  -3.464   0.000  0.00  0.00    +0.000 A 
ATOM     25  C   UNL     1       0.418  -3.370   0.000  0.00  0.00    +0.000 A 
ATOM     26  C   UNL     1       0.091  -2.612   0.000  0.00  0.00    +0.000 A 
ENDBRANCH  20  21
ENDBRANCH  19  20
ENDBRANCH   1  19
TORSDOF 11
