REMARK  Name = RA2
REMARK  8 active torsions:
REMARK  status: ('A' for Active; 'I' for Inactive)
REMARK    1  A    between atoms: C_2  and  N_8
REMARK    2  A    between atoms: C_3  and  N_9
REMARK    3  A    between atoms: C_5  and  C_7
REMARK    4  A    between atoms: N_9  and  C_10
REMARK    5  A    between atoms: C_10  and  C_11
REMARK    6  A    between atoms: C_10  and  C_13
REMARK    7  A    between atoms: C_15  and  C_20
REMARK    8  A    between atoms: C_15  and  C_22
REMARK                            x       y       z     vdW  Elec       q    Type
REMARK                         _______ _______ _______ _____ _____    ______ ____
ROOT
ATOM      1  C   UNL     1      -0.679  -1.023   0.000  0.00  0.00    +0.000 A 
ATOM      2  C   UNL     1      -0.343  -0.270   0.000  0.00  0.00    +0.000 A 
ATOM      3  C   UNL     1       0.477  -0.183   0.000  0.00  0.00    +0.000 A 
ATOM      4  C   UNL     1       0.962  -0.851   0.000  0.00  0.00    +0.000 A 
ATOM      5  C   UNL     1       0.626  -1.605   0.000  0.00  0.00    +0.000 A 
ATOM      6  C   UNL     1      -0.194  -1.691   0.000  0.00  0.00    +0.000 A 
ENDROOT
BRANCH   2   7
ATOM      7  N   UNL     1      -0.828   0.398   0.000  0.00  0.00    +0.000 N 
ATOM      8  C   UNL     1      -1.653   0.398   0.000  0.00  0.00    +0.000 C 
ATOM      9  C   UNL     1      -1.908   1.182   0.000  0.00  0.00    +0.000 C 
ATOM     10  C   UNL     1      -1.241   1.667   0.000  0.00  0.00    +0.000 C 
ATOM     11  C   UNL     1      -0.573   1.182   0.000  0.00  0.00    +0.000 C 
ATOM     12  O   UNL     1       0.211   1.437   0.000  0.00  0.00    +0.000 OA
BRANCH   8  13
ATOM     13  C   UNL     1      -2.403   0.054   0.000  0.00  0.00    +0.000 C 
ATOM     14  O   UNL     1      -3.076   0.532   0.000  0.00  0.00    +0.000 OA
ENDBRANCH   8  13
BRANCH   8  15
ATOM     15  C   UNL     1      -1.748  -0.422   0.000  0.00  0.00    +0.000 C 
ATOM     16  O   UNL     1      -1.086  -0.914   0.000  0.00  0.00    +0.000 OA
ENDBRANCH   8  15
ENDBRANCH   2   7
BRANCH   5  17
ATOM     17  C   UNL     1       1.111  -2.272   0.000  0.00  0.00    +0.000 C 
ATOM     18  O   UNL     1       0.776  -3.026   0.000  0.00  0.00    +0.000 OA
ATOM     19  O   UNL     1       1.932  -2.186   0.000  0.00  0.00    +0.000 OA
ENDBRANCH   5  17
BRANCH   3  20
ATOM     20  N   UNL     1       0.813   0.570   0.000  0.00  0.00    +0.000 NA
BRANCH  20  21
ATOM     21  C   UNL     1       1.633   0.656   0.000  0.00  0.00    +0.000 C 
BRANCH  21  22
ATOM     22  C   UNL     1       1.969   1.410   0.000  0.00  0.00    +0.000 C 
ATOM     23  C   UNL     1       2.789   1.496   0.000  0.00  0.00    +0.000 C 
ENDBRANCH  21  22
BRANCH  21  24
ATOM     24  C   UNL     1       2.118  -0.011   0.000  0.00  0.00    +0.000 C 
ATOM     25  C   UNL     1       2.939   0.075   0.000  0.00  0.00    +0.000 C 
ENDBRANCH  21  24
ENDBRANCH  20  21
ENDBRANCH   3  20
TORSDOF 8
