REMARK  Name = RB1
REMARK  3 active torsions:
REMARK  status: ('A' for Active; 'I' for Inactive)
REMARK    1  A    between atoms: C_2  and  N_5
REMARK    2  A    between atoms: C_14  and  C_15
REMARK    3  A    between atoms: C_15  and  C_16
REMARK                            x       y       z     vdW  Elec       q    Type
REMARK                         _______ _______ _______ _____ _____    ______ ____
ROOT
ATOM      1  N   UNL     1      -0.419   1.337   0.000  0.00  0.00    +0.000 N 
ATOM      2  N   UNL     1      -0.904   0.670   0.000  0.00  0.00    +0.000 NA
ATOM      3  C   UNL     1       0.366   1.082   0.000  0.00  0.00    +0.000 A 
ATOM      4  N   UNL     1       1.080   1.495   0.000  0.00  0.00    +0.000 NA
ATOM      5  C   UNL     1       1.795   1.082   0.000  0.00  0.00    +0.000 A 
ATOM      6  N   UNL     1       1.795   0.257   0.000  0.00  0.00    +0.000 NA
ATOM      7  C   UNL     1       1.080  -0.155   0.000  0.00  0.00    +0.000 A 
ATOM      8  N   UNL     1       1.080  -0.980   0.000  0.00  0.00    +0.000 NA
ATOM      9  C   UNL     1       0.366   0.257   0.000  0.00  0.00    +0.000 A 
ATOM     10  C   UNL     1      -0.419   0.002   0.000  0.00  0.00    +0.000 A 
ENDROOT
BRANCH   1  12
ATOM     11  C   UNL     1      -0.929   2.906   0.000  0.00  0.00    +0.000 C 
ATOM     12  C   UNL     1      -0.674   2.122   0.000  0.00  0.00    +0.000 C 
ATOM     13  C   UNL     1      -1.458   1.867   0.000  0.00  0.00    +0.000 C 
ATOM     14  C   UNL     1       0.111   2.377   0.000  0.00  0.00    +0.000 C 
ENDBRANCH   1  12
BRANCH  10  15
ATOM     15  C   UNL     1      -0.674  -0.782   0.000  0.00  0.00    +0.000 C 
BRANCH  15  16
ATOM     16  C   UNL     1      -0.122  -1.395   0.000  0.00  0.00    +0.000 A 
ATOM     17  C   UNL     1       0.685  -1.224   0.000  0.00  0.00    +0.000 A 
ATOM     18  C   UNL     1      -0.377  -2.180   0.000  0.00  0.00    +0.000 A 
ATOM     19  C   UNL     1       0.175  -2.793   0.000  0.00  0.00    +0.000 A 
ATOM     20  C   UNL     1       0.982  -2.622   0.000  0.00  0.00    +0.000 A 
ATOM     21  C   UNL     1       1.237  -1.837   0.000  0.00  0.00    +0.000 A 
ATOM     22  O   UNL     1       2.044  -1.665   0.000  0.00  0.00    +0.000 OA
ENDBRANCH  15  16
ENDBRANCH  10  15
TORSDOF 3
