REMARK  Name = RBS
REMARK  3 active torsions:
REMARK  status: ('A' for Active; 'I' for Inactive)
REMARK    1  A    between atoms: C_2  and  C_3
REMARK    2  A    between atoms: N_5  and  C_6
REMARK    3  A    between atoms: N_16  and  C_17
REMARK                            x       y       z     vdW  Elec       q    Type
REMARK                         _______ _______ _______ _____ _____    ______ ____
ROOT
ATOM      1  C   UNL     1      -0.227  -0.533   0.000  0.00  0.00    +0.000 A 
ATOM      2  C   UNL     1       0.487  -0.120   0.000  0.00  0.00    +0.000 A 
ATOM      3  C   UNL     1      -0.227  -1.358   0.000  0.00  0.00    +0.000 A 
ATOM      4  C   UNL     1       0.487  -1.770   0.000  0.00  0.00    +0.000 A 
ATOM      5  C   UNL     1       1.202  -1.358   0.000  0.00  0.00    +0.000 A 
ATOM      6  C   UNL     1       1.202  -0.533   0.000  0.00  0.00    +0.000 A 
ATOM      7  C   UNL     1       1.916  -0.120   0.000  0.00  0.00    +0.000 A 
ATOM      8  N   UNL     1       2.631  -0.533   0.000  0.00  0.00    +0.000 NA
ATOM      9  C   UNL     1       2.631  -1.358   0.000  0.00  0.00    +0.000 A 
ATOM     10  N   UNL     1       1.916  -1.770   0.000  0.00  0.00    +0.000 NA
ATOM     11  N   UNL     1       1.916   0.705   0.000  0.00  0.00    +0.000 NA
ENDROOT
BRANCH  11  12
ATOM     12  C   UNL     1       2.631   1.117   0.000  0.00  0.00    +0.000 A 
ATOM     13  C   UNL     1       3.345   0.705   0.000  0.00  0.00    +0.000 A 
ATOM     14  C   UNL     1       2.631   1.942   0.000  0.00  0.00    +0.000 A 
ATOM     15  C   UNL     1       3.345   2.355   0.000  0.00  0.00    +0.000 A 
ATOM     16  C   UNL     1       4.060   1.942   0.000  0.00  0.00    +0.000 A 
ATOM     17  C   UNL     1       4.060   1.117   0.000  0.00  0.00    +0.000 A 
ENDBRANCH  11  12
BRANCH   1  20
ATOM     18  O   UNL     1      -1.656  -1.358   0.000  0.00  0.00    +0.000 OA
ATOM     19  C   UNL     1      -1.656  -0.533   0.000  0.00  0.00    +0.000 C 
ATOM     20  N   UNL     1      -0.942  -0.120   0.000  0.00  0.00    +0.000 NA
BRANCH  19  21
ATOM     21  C   UNL     1      -2.371  -0.120   0.000  0.00  0.00    +0.000 C 
ATOM     22  C   UNL     1      -3.085  -0.533   0.000  0.00  0.00    +0.000 C 
ENDBRANCH  19  21
ENDBRANCH   1  20
TORSDOF 3
