REMARK  Name = RC8
REMARK  7 active torsions:
REMARK  status: ('A' for Active; 'I' for Inactive)
REMARK    1  A    between atoms: C_6  and  N_15
REMARK    2  A    between atoms: CA_8  and  C_11
REMARK    3  A    between atoms: CA_8  and  C_12
REMARK    4  A    between atoms: CA_8  and  N_13
REMARK    5  A    between atoms: N_19  and  C_20
REMARK    6  A    between atoms: C_20  and  C_21
REMARK    7  A    between atoms: C_24  and  C_27
REMARK                            x       y       z     vdW  Elec       q    Type
REMARK                         _______ _______ _______ _____ _____    ______ ____
ROOT
ATOM      1  C   UNL     1       1.257   1.420   0.000  0.00  0.00    +0.000 A 
ATOM      2  C   UNL     1      -0.172   1.420   0.000  0.00  0.00    +0.000 A 
ATOM      3  C   UNL     1      -0.172   0.595   0.000  0.00  0.00    +0.000 A 
ATOM      4  C   UNL     1       0.542   0.183   0.000  0.00  0.00    +0.000 A 
ATOM      5  C   UNL     1      -1.442   1.008   0.000  0.00  0.00    +0.000 A 
ATOM      6  N   UNL     1       1.971   1.833   0.000  0.00  0.00    +0.000 NA
ATOM      7  N   UNL     1       1.257   0.595   0.000  0.00  0.00    +0.000 NA
ATOM      8  N   UNL     1      -0.957   1.675   0.000  0.00  0.00    +0.000 N 
ATOM      9  N   UNL     1      -0.957   0.341   0.000  0.00  0.00    +0.000 NA
ATOM     10  N   UNL     1       0.542   1.833   0.000  0.00  0.00    +0.000 NA
ATOM     11  N   UNL     1       0.542  -0.642   0.000  0.00  0.00    +0.000 NA
ENDROOT
BRANCH   8  12
ATOM     12  C   UNL     1      -1.212   2.460   0.000  0.00  0.00    +0.000 C 
ATOM     13  C   UNL     1      -0.660   3.073   0.000  0.00  0.00    +0.000 C 
ATOM     14  C   UNL     1      -2.019   2.631   0.000  0.00  0.00    +0.000 C 
ENDBRANCH   8  12
BRANCH   6  15
ATOM     15  CA  UNL     1       1.971   2.658   0.000  0.00  0.00    +0.000 C 
BRANCH  15  17
ATOM     16  C   UNL     1       2.686   3.895   0.000  0.00  0.00    +0.000 C 
ATOM     17  C   UNL     1       2.686   3.070   0.000  0.00  0.00    +0.000 C 
ENDBRANCH  15  17
BRANCH  15  19
ATOM     18  O   UNL     1       1.257   3.895   0.000  0.00  0.00    +0.000 OA
ATOM     19  C   UNL     1       1.257   3.070   0.000  0.00  0.00    +0.000 C 
ENDBRANCH  15  19
ENDBRANCH   6  15
BRANCH  11  20
ATOM     20  C   UNL     1      -0.172  -1.055   0.000  0.00  0.00    +0.000 C 
BRANCH  20  21
ATOM     21  C   UNL     1      -0.172  -1.880   0.000  0.00  0.00    +0.000 A 
ATOM     22  C   UNL     1      -0.887  -2.292   0.000  0.00  0.00    +0.000 A 
ATOM     23  C   UNL     1      -0.887  -3.117   0.000  0.00  0.00    +0.000 A 
ATOM     24  C   UNL     1      -0.172  -3.530   0.000  0.00  0.00    +0.000 A 
ATOM     25  C   UNL     1       0.542  -3.117   0.000  0.00  0.00    +0.000 A 
ATOM     26  C   UNL     1       0.542  -2.292   0.000  0.00  0.00    +0.000 A 
BRANCH  24  27
ATOM     27  C   UNL     1      -0.172  -4.355   0.000  0.00  0.00    +0.000 A 
ATOM     28  N   UNL     1       0.542  -4.767   0.000  0.00  0.00    +0.000 NA
ATOM     29  C   UNL     1       0.542  -5.592   0.000  0.00  0.00    +0.000 A 
ATOM     30  C   UNL     1      -0.172  -6.005   0.000  0.00  0.00    +0.000 A 
ATOM     31  C   UNL     1      -0.887  -5.592   0.000  0.00  0.00    +0.000 A 
ATOM     32  C   UNL     1      -0.887  -4.767   0.000  0.00  0.00    +0.000 A 
ENDBRANCH  24  27
ENDBRANCH  20  21
ENDBRANCH  11  20
TORSDOF 7
