REMARK  Name = RDA
REMARK  7 active torsions:
REMARK  status: ('A' for Active; 'I' for Inactive)
REMARK    1  A    between atoms: O_2  and  C_3
REMARK    2  A    between atoms: C_3  and  C_5
REMARK    3  A    between atoms: C_13  and  C_14
REMARK    4  A    between atoms: C_14  and  C_15
REMARK    5  A    between atoms: C_15  and  C_16
REMARK    6  A    between atoms: N_18  and  C_19
REMARK    7  A    between atoms: C_23  and  O_24
REMARK                            x       y       z     vdW  Elec       q    Type
REMARK                         _______ _______ _______ _____ _____    ______ ____
ROOT
ATOM      1  C   UNL     1      -1.286   0.240   0.000  0.00  0.00    +0.000 C 
ENDROOT
BRANCH   1  10
ATOM      2  C   UNL     1      -2.715   0.240   0.000  0.00  0.00    +0.000 A 
ATOM      3  C   UNL     1      -3.430   0.652   0.000  0.00  0.00    +0.000 A 
ATOM      4  O   UNL     1      -4.144   0.240   0.000  0.00  0.00    +0.000 OA
ATOM      5  C   UNL     1      -3.430   1.477   0.000  0.00  0.00    +0.000 A 
ATOM      6  C   UNL     1      -2.715   1.890   0.000  0.00  0.00    +0.000 A 
ATOM      7  O   UNL     1      -2.715   2.715   0.000  0.00  0.00    +0.000 OA
ATOM      8  C   UNL     1      -2.001   1.477   0.000  0.00  0.00    +0.000 A 
ATOM      9 CL   UNL     1      -1.286   1.890   0.000  0.00  0.00    +0.000 Cl
ATOM     10  C   UNL     1      -2.001   0.652   0.000  0.00  0.00    +0.000 A 
BRANCH   2  11
ATOM     11  C   UNL     1      -2.715  -0.585   0.000  0.00  0.00    +0.000 C 
ATOM     12  O   UNL     1      -2.001  -0.998   0.000  0.00  0.00    +0.000 OA
BRANCH  11  14
ATOM     13  C   UNL     1      -3.430  -1.823   0.000  0.00  0.00    +0.000 C 
ATOM     14  O   UNL     1      -3.430  -0.998   0.000  0.00  0.00    +0.000 OA
ENDBRANCH  11  14
ENDBRANCH   2  11
ENDBRANCH   1  10
BRANCH   1  15
ATOM     15  C   UNL     1      -0.572   0.652   0.000  0.00  0.00    +0.000 C 
BRANCH  15  16
ATOM     16  C   UNL     1       0.142   0.240   0.000  0.00  0.00    +0.000 C 
ATOM     17  O   UNL     1       0.142  -0.585   0.000  0.00  0.00    +0.000 OA
ATOM     18  N   UNL     1       0.857   0.652   0.000  0.00  0.00    +0.000 NA
BRANCH  18  19
ATOM     19  C   UNL     1       1.571   0.240   0.000  0.00  0.00    +0.000 A 
ATOM     20  C   UNL     1       2.286   0.652   0.000  0.00  0.00    +0.000 A 
ATOM     21  C   UNL     1       3.000   0.240   0.000  0.00  0.00    +0.000 A 
ATOM     22  O   UNL     1       3.715   0.652   0.000  0.00  0.00    +0.000 OA
ATOM     23  C   UNL     1       3.000  -0.585   0.000  0.00  0.00    +0.000 A 
ATOM     24  C   UNL     1       2.286  -0.998   0.000  0.00  0.00    +0.000 A 
ATOM     25  C   UNL     1       1.571  -0.585   0.000  0.00  0.00    +0.000 A 
ATOM     26  O   UNL     1       0.857  -0.998   0.000  0.00  0.00    +0.000 OA
BRANCH  23  27
ATOM     27  O   UNL     1       3.715  -0.998   0.000  0.00  0.00    +0.000 OA
ATOM     28  C   UNL     1       4.429  -0.585   0.000  0.00  0.00    +0.000 C 
ENDBRANCH  23  27
ENDBRANCH  18  19
ENDBRANCH  15  16
ENDBRANCH   1  15
TORSDOF 7
