REMARK  Name = RDE
REMARK  8 active torsions:
REMARK  status: ('A' for Active; 'I' for Inactive)
REMARK    1  A    between atoms: O_2  and  C_3
REMARK    2  A    between atoms: C_4  and  O_5
REMARK    3  A    between atoms: C_10  and  O_11
REMARK    4  A    between atoms: C_13  and  C_14
REMARK    5  A    between atoms: C_14  and  C_15
REMARK    6  A    between atoms: C_15  and  O_16
REMARK    7  A    between atoms: O_16  and  C_17
REMARK    8  A    between atoms: C_17  and  C_19
REMARK                            x       y       z     vdW  Elec       q    Type
REMARK                         _______ _______ _______ _____ _____    ______ ____
ROOT
ATOM      1  C   UNL     1       0.071  -0.225   0.000  0.00  0.00    +0.000 C 
ENDROOT
BRANCH   1   8
ATOM      2  C   UNL     1      -1.358  -0.225   0.000  0.00  0.00    +0.000 A 
ATOM      3  C   UNL     1      -2.073   0.188   0.000  0.00  0.00    +0.000 A 
ATOM      4  C   UNL     1      -2.073   1.013   0.000  0.00  0.00    +0.000 A 
ATOM      5  C   UNL     1      -1.358   1.425   0.000  0.00  0.00    +0.000 A 
ATOM      6  N   UNL     1      -1.358   2.250   0.000  0.00  0.00    +0.000 NA
ATOM      7  C   UNL     1      -0.644   1.013   0.000  0.00  0.00    +0.000 A 
ATOM      8  C   UNL     1      -0.644   0.188   0.000  0.00  0.00    +0.000 A 
BRANCH   3   9
ATOM      9  O   UNL     1      -2.787  -0.225   0.000  0.00  0.00    +0.000 OA
ATOM     10  C   UNL     1      -3.502   0.188   0.000  0.00  0.00    +0.000 C 
ENDBRANCH   3   9
BRANCH   7  11
ATOM     11  O   UNL     1       0.071   1.425   0.000  0.00  0.00    +0.000 OA
ATOM     12  C   UNL     1       0.785   1.013   0.000  0.00  0.00    +0.000 C 
ENDBRANCH   7  11
BRANCH   2  14
ATOM     13  C   UNL     1      -0.644  -1.462   0.000  0.00  0.00    +0.000 C 
ATOM     14  O   UNL     1      -1.358  -1.050   0.000  0.00  0.00    +0.000 OA
ENDBRANCH   2  14
ENDBRANCH   1   8
BRANCH   1  15
ATOM     15  C   UNL     1       0.785   0.188   0.000  0.00  0.00    +0.000 C 
BRANCH  15  16
ATOM     16  O   UNL     1       1.500  -0.225   0.000  0.00  0.00    +0.000 OA
BRANCH  16  17
ATOM     17  C   UNL     1       2.214   0.188   0.000  0.00  0.00    +0.000 C 
ATOM     18  O   UNL     1       2.214   1.013   0.000  0.00  0.00    +0.000 OA
BRANCH  17  19
ATOM     19  C   UNL     1       2.929  -0.225   0.000  0.00  0.00    +0.000 A 
ATOM     20  C   UNL     1       3.643   0.188   0.000  0.00  0.00    +0.000 A 
ATOM     21  C   UNL     1       4.358  -0.225   0.000  0.00  0.00    +0.000 A 
ATOM     22 CL   UNL     1       5.072   0.188   0.000  0.00  0.00    +0.000 Cl
ATOM     23  C   UNL     1       4.358  -1.050   0.000  0.00  0.00    +0.000 A 
ATOM     24  O   UNL     1       5.072  -1.462   0.000  0.00  0.00    +0.000 OA
ATOM     25  C   UNL     1       3.643  -1.462   0.000  0.00  0.00    +0.000 A 
ATOM     26  C   UNL     1       2.929  -1.050   0.000  0.00  0.00    +0.000 A 
ATOM     27  O   UNL     1       2.214  -1.462   0.000  0.00  0.00    +0.000 OA
ENDBRANCH  17  19
ENDBRANCH  16  17
ENDBRANCH  15  16
ENDBRANCH   1  15
TORSDOF 8
