REMARK  Name = RE2
REMARK  3 active torsions:
REMARK  status: ('A' for Active; 'I' for Inactive)
REMARK    1  A    between atoms: C_4  and  C_5
REMARK    2  A    between atoms: C_4  and  C_11
REMARK    3  A    between atoms: C_5  and  C_7
REMARK                            x       y       z     vdW  Elec       q    Type
REMARK                         _______ _______ _______ _____ _____    ______ ____
ROOT
ATOM      1  C   UNL     1      -0.371  -0.226   0.000  0.00  0.00    +0.000 C 
ENDROOT
BRANCH   1   6
ATOM      2  C   UNL     1      -1.800   1.424   0.000  0.00  0.00    +0.000 A 
ATOM      3  C   UNL     1      -2.514   1.011   0.000  0.00  0.00    +0.000 A 
ATOM      4  C   UNL     1      -2.514   0.186   0.000  0.00  0.00    +0.000 A 
ATOM      5  C   UNL     1      -1.800  -0.226   0.000  0.00  0.00    +0.000 A 
ATOM      6  C   UNL     1      -1.085   0.186   0.000  0.00  0.00    +0.000 A 
ATOM      7  C   UNL     1      -1.085   1.011   0.000  0.00  0.00    +0.000 A 
ATOM      8  O   UNL     1      -3.229  -0.226   0.000  0.00  0.00    +0.000 OA
ATOM      9  O   UNL     1      -1.800   2.249   0.000  0.00  0.00    +0.000 OA
ENDBRANCH   1   6
BRANCH   1  10
ATOM     10  C   UNL     1       0.344   0.186   0.000  0.00  0.00    +0.000 C 
BRANCH  10  11
ATOM     11  C   UNL     1       1.058  -0.226   0.000  0.00  0.00    +0.000 A 
ATOM     12  C   UNL     1       1.772   0.186   0.000  0.00  0.00    +0.000 A 
ATOM     13  C   UNL     1       2.487  -0.226   0.000  0.00  0.00    +0.000 A 
ATOM     14  C   UNL     1       2.487  -1.051   0.000  0.00  0.00    +0.000 A 
ATOM     15  O   UNL     1       3.201  -1.464   0.000  0.00  0.00    +0.000 OA
ATOM     16  C   UNL     1       1.772  -1.464   0.000  0.00  0.00    +0.000 A 
ATOM     17  C   UNL     1       1.058  -1.051   0.000  0.00  0.00    +0.000 A 
ENDBRANCH  10  11
ENDBRANCH   1  10
TORSDOF 3
