REMARK  Name = RE9
REMARK  4 active torsions:
REMARK  status: ('A' for Active; 'I' for Inactive)
REMARK    1  A    between atoms: C_7  and  C_10
REMARK    2  A    between atoms: C_10  and  C_11
REMARK    3  A    between atoms: C_12  and  C_13
REMARK    4  A    between atoms: C_14  and  C_15
REMARK                            x       y       z     vdW  Elec       q    Type
REMARK                         _______ _______ _______ _____ _____    ______ ____
ROOT
ATOM      1  C   UNL     1       1.638   1.418   0.000  0.00  0.00    +0.000 C 
ATOM      2  C   UNL     1       2.353   1.006   0.000  0.00  0.00    +0.000 C 
ATOM      3  C   UNL     1       2.353   0.181   0.000  0.00  0.00    +0.000 C 
ATOM      4  C   UNL     1       1.638  -0.232   0.000  0.00  0.00    +0.000 C 
ATOM      5  C   UNL     1       0.924   0.181   0.000  0.00  0.00    +0.000 C 
ATOM      6  C   UNL     1       0.139  -0.074   0.000  0.00  0.00    +0.000 C 
ATOM      7  C   UNL     1      -0.346   0.593   0.000  0.00  0.00    +0.000 C 
ATOM      8  C   UNL     1       0.139   1.261   0.000  0.00  0.00    +0.000 C 
ATOM      9  C   UNL     1       0.924   1.006   0.000  0.00  0.00    +0.000 C 
ATOM     10  C   UNL     1       2.025   2.147   0.000  0.00  0.00    +0.000 C 
ATOM     11  C   UNL     1       1.251   2.147   0.000  0.00  0.00    +0.000 C 
ATOM     12  C   UNL     1      -0.116  -0.859   0.000  0.00  0.00    +0.000 C 
ATOM     13  C   UNL     1      -1.065   0.998   0.000  0.00  0.00    +0.000 C 
ENDROOT
BRANCH   7  14
ATOM     14  C   UNL     1      -1.065   0.188   0.000  0.00  0.00    +0.000 C 
BRANCH  14  15
ATOM     15  C   UNL     1      -1.073  -0.637   0.000  0.00  0.00    +0.000 C 
ATOM     16  C   UNL     1      -1.792  -1.042   0.000  0.00  0.00    +0.000 C 
BRANCH  16  17
ATOM     17  C   UNL     1      -1.801  -1.867   0.000  0.00  0.00    +0.000 C 
ATOM     18  C   UNL     1      -2.519  -2.272   0.000  0.00  0.00    +0.000 C 
ATOM     19  C   UNL     1      -1.091  -2.287   0.000  0.00  0.00    +0.000 C 
BRANCH  18  20
ATOM     20  C   UNL     1      -2.528  -3.097   0.000  0.00  0.00    +0.000 C 
ATOM     21  O   UNL     1      -1.818  -3.517   0.000  0.00  0.00    +0.000 OA
ATOM     22  O   UNL     1      -3.247  -3.502   0.000  0.00  0.00    +0.000 OA
ENDBRANCH  18  20
ENDBRANCH  16  17
ENDBRANCH  14  15
ENDBRANCH   7  14
TORSDOF 4
