REMARK  Name = Resveratrol
REMARK  2 active torsions:
REMARK  status: ('A' for Active; 'I' for Inactive)
REMARK    1  A    between atoms: C_5  and  C_6
REMARK    2  A    between atoms: C_7  and  C_8
REMARK                            x       y       z     vdW  Elec       q    Type
REMARK                         _______ _______ _______ _____ _____    ______ ____
ROOT
ATOM      1  C   UNL     1       1.429  -4.950   0.000  0.00  0.00    +0.000 C 
ATOM      2  C   UNL     1       2.143  -5.362   0.000  0.00  0.00    +0.000 C 
ENDROOT
BRANCH   2   3
ATOM      3  C   UNL     1       2.143  -6.188   0.000  0.00  0.00    +0.000 A 
ATOM      4  C   UNL     1       2.858  -6.600   0.000  0.00  0.00    +0.000 A 
ATOM      5  C   UNL     1       2.858  -7.425   0.000  0.00  0.00    +0.000 A 
ATOM      6  O   UNL     1       3.572  -7.838   0.000  0.00  0.00    +0.000 OA
ATOM      7  C   UNL     1       2.143  -7.838   0.000  0.00  0.00    +0.000 A 
ATOM      8  C   UNL     1       1.429  -7.425   0.000  0.00  0.00    +0.000 A 
ATOM      9  O   UNL     1       0.715  -7.838   0.000  0.00  0.00    +0.000 OA
ATOM     10  C   UNL     1       1.429  -6.600   0.000  0.00  0.00    +0.000 A 
ENDBRANCH   2   3
BRANCH   1  15
ATOM     11  O   UNL     1       1.429  -1.650   0.000  0.00  0.00    +0.000 OA
ATOM     12  C   UNL     1       1.429  -2.475   0.000  0.00  0.00    +0.000 A 
ATOM     13  C   UNL     1       2.143  -2.888   0.000  0.00  0.00    +0.000 A 
ATOM     14  C   UNL     1       2.143  -3.712   0.000  0.00  0.00    +0.000 A 
ATOM     15  C   UNL     1       1.429  -4.125   0.000  0.00  0.00    +0.000 A 
ATOM     16  C   UNL     1       0.715  -3.712   0.000  0.00  0.00    +0.000 A 
ATOM     17  C   UNL     1       0.715  -2.888   0.000  0.00  0.00    +0.000 A 
ENDBRANCH   1  15
TORSDOF 2
