REMARK  Name = RF1
REMARK  4 active torsions:
REMARK  status: ('A' for Active; 'I' for Inactive)
REMARK    1  A    between atoms: C_2  and  O_5
REMARK    2  A    between atoms: O_5  and  C_6
REMARK    3  A    between atoms: C_13  and  C_14
REMARK    4  A    between atoms: C_18  and  C_19
REMARK                            x       y       z     vdW  Elec       q    Type
REMARK                         _______ _______ _______ _____ _____    ______ ____
ROOT
ATOM      1  C   UNL     1      -0.129   1.691   0.000  0.00  0.00    +0.000 C 
ATOM      2  O   UNL     1       0.586   2.103   0.000  0.00  0.00    +0.000 OA
ATOM      3  N   UNL     1      -0.129   0.866   0.000  0.00  0.00    +0.000 N 
ATOM      4  C   UNL     1       0.586   0.453   0.000  0.00  0.00    +0.000 C 
ATOM      5  C   UNL     1       0.586  -0.372   0.000  0.00  0.00    +0.000 C 
ATOM      6  C   UNL     1      -0.843   0.453   0.000  0.00  0.00    +0.000 C 
ATOM      7  C   UNL     1      -0.843  -0.372   0.000  0.00  0.00    +0.000 C 
ATOM      8  C   UNL     1      -0.129  -0.784   0.000  0.00  0.00    +0.000 C 
ENDROOT
BRANCH   8   9
ATOM      9  C   UNL     1      -0.129  -1.609   0.000  0.00  0.00    +0.000 A 
ATOM     10  N   UNL     1      -0.796  -2.094   0.000  0.00  0.00    +0.000 NA
ATOM     11  O   UNL     1       0.539  -2.094   0.000  0.00  0.00    +0.000 OA
ATOM     12  N   UNL     1       0.284  -2.879   0.000  0.00  0.00    +0.000 NA
ATOM     13  C   UNL     1      -0.541  -2.879   0.000  0.00  0.00    +0.000 A 
BRANCH  13  14
ATOM     14  C   UNL     1      -1.026  -3.546   0.000  0.00  0.00    +0.000 A 
ATOM     15  C   UNL     1      -1.851  -3.546   0.000  0.00  0.00    +0.000 A 
ATOM     16  C   UNL     1      -2.106  -4.331   0.000  0.00  0.00    +0.000 A 
ATOM     17  C   UNL     1      -1.439  -4.816   0.000  0.00  0.00    +0.000 A 
ATOM     18  S   UNL     1      -0.771  -4.331   0.000  0.00  0.00    +0.000 S 
ENDBRANCH  13  14
ENDBRANCH   8   9
BRANCH   1  19
ATOM     19  O   UNL     1      -0.843   2.103   0.000  0.00  0.00    +0.000 OA
BRANCH  19  21
ATOM     20  C   UNL     1      -0.843   3.753   0.000  0.00  0.00    +0.000 C 
ATOM     21  C   UNL     1      -0.843   2.928   0.000  0.00  0.00    +0.000 C 
ATOM     22  C   UNL     1      -1.668   2.928   0.000  0.00  0.00    +0.000 C 
ATOM     23  C   UNL     1      -0.018   2.928   0.000  0.00  0.00    +0.000 C 
ENDBRANCH  19  21
ENDBRANCH   1  19
TORSDOF 4
