REMARK  Name = RF2
REMARK  2 active torsions:
REMARK  status: ('A' for Active; 'I' for Inactive)
REMARK    1  A    between atoms: C_7  and  C_8
REMARK    2  A    between atoms: C_12  and  C_13
REMARK                            x       y       z     vdW  Elec       q    Type
REMARK                         _______ _______ _______ _____ _____    ______ ____
ROOT
ATOM      1  C   UNL     1      -0.868   0.410   0.000  0.00  0.00    +0.000 A 
ATOM      2  N   UNL     1      -0.200  -0.075   0.000  0.00  0.00    +0.000 NA
ATOM      3  N   UNL     1      -1.535  -0.075   0.000  0.00  0.00    +0.000 NA
ATOM      4  N   UNL     1      -1.280  -0.860   0.000  0.00  0.00    +0.000 NA
ATOM      5  C   UNL     1      -0.455  -0.860   0.000  0.00  0.00    +0.000 A 
ENDROOT
BRANCH   1  12
ATOM      6  C   UNL     1      -0.153   1.647   0.000  0.00  0.00    +0.000 A 
ATOM      7  C   UNL     1      -0.153   2.472   0.000  0.00  0.00    +0.000 A 
ATOM      8  C   UNL     1      -0.868   2.885   0.000  0.00  0.00    +0.000 A 
ATOM      9  F   UNL     1      -0.868   3.710   0.000  0.00  0.00    +0.000 F 
ATOM     10  C   UNL     1      -1.582   2.472   0.000  0.00  0.00    +0.000 A 
ATOM     11  C   UNL     1      -1.582   1.647   0.000  0.00  0.00    +0.000 A 
ATOM     12  C   UNL     1      -0.868   1.235   0.000  0.00  0.00    +0.000 A 
ENDBRANCH   1  12
BRANCH   5  13
ATOM     13  C   UNL     1       0.030  -1.527   0.000  0.00  0.00    +0.000 A 
ATOM     14  C   UNL     1      -0.306  -2.281   0.000  0.00  0.00    +0.000 A 
ATOM     15  C   UNL     1       0.179  -2.948   0.000  0.00  0.00    +0.000 A 
ATOM     16  C   UNL     1       1.000  -2.862   0.000  0.00  0.00    +0.000 A 
ATOM     17  C   UNL     1       1.335  -2.108   0.000  0.00  0.00    +0.000 A 
ATOM     18  C   UNL     1       0.850  -1.441   0.000  0.00  0.00    +0.000 A 
ENDBRANCH   5  13
TORSDOF 2
