REMARK  Name = RF3
REMARK  4 active torsions:
REMARK  status: ('A' for Active; 'I' for Inactive)
REMARK    1  A    between atoms: C_5  and  C_6
REMARK    2  A    between atoms: C_6  and  C_7
REMARK    3  A    between atoms: C_14  and  C_15
REMARK    4  A    between atoms: C_19  and  C_20
REMARK                            x       y       z     vdW  Elec       q    Type
REMARK                         _______ _______ _______ _____ _____    ______ ____
ROOT
ATOM      1  C   UNL     1      -0.574   1.662   0.000  0.00  0.00    +0.000 C 
ATOM      2  O   UNL     1      -0.238   2.416   0.000  0.00  0.00    +0.000 OA
ATOM      3  N   UNL     1      -0.089   0.995   0.000  0.00  0.00    +0.000 N 
ATOM      4  C   UNL     1       0.732   1.081   0.000  0.00  0.00    +0.000 C 
ATOM      5  C   UNL     1       1.217   0.413   0.000  0.00  0.00    +0.000 C 
ATOM      6  C   UNL     1      -0.424   0.241   0.000  0.00  0.00    +0.000 C 
ATOM      7  C   UNL     1       0.060  -0.427   0.000  0.00  0.00    +0.000 C 
ATOM      8  C   UNL     1       0.881  -0.340   0.000  0.00  0.00    +0.000 C 
ENDROOT
BRANCH   8   9
ATOM      9  C   UNL     1       1.366  -1.008   0.000  0.00  0.00    +0.000 A 
ATOM     10  N   UNL     1       1.111  -1.792   0.000  0.00  0.00    +0.000 NA
ATOM     11  O   UNL     1       2.191  -1.008   0.000  0.00  0.00    +0.000 OA
ATOM     12  N   UNL     1       2.446  -1.792   0.000  0.00  0.00    +0.000 NA
ATOM     13  C   UNL     1       1.778  -2.277   0.000  0.00  0.00    +0.000 A 
BRANCH  13  14
ATOM     14  C   UNL     1       1.778  -3.102   0.000  0.00  0.00    +0.000 A 
ATOM     15  C   UNL     1       2.446  -3.587   0.000  0.00  0.00    +0.000 A 
ATOM     16  C   UNL     1       2.191  -4.372   0.000  0.00  0.00    +0.000 A 
ATOM     17  C   UNL     1       1.366  -4.372   0.000  0.00  0.00    +0.000 A 
ATOM     18  S   UNL     1       1.111  -3.587   0.000  0.00  0.00    +0.000 S 
ENDBRANCH  13  14
ENDBRANCH   8   9
BRANCH   1  19
ATOM     19  C   UNL     1      -1.394   1.576   0.000  0.00  0.00    +0.000 C 
BRANCH  19  24
ATOM     20  C   UNL     1      -1.624   3.028   0.000  0.00  0.00    +0.000 A 
ATOM     21  C   UNL     1      -2.292   3.513   0.000  0.00  0.00    +0.000 A 
ATOM     22  C   UNL     1      -2.959   3.028   0.000  0.00  0.00    +0.000 A 
ATOM     23  S   UNL     1      -2.704   2.243   0.000  0.00  0.00    +0.000 S 
ATOM     24  C   UNL     1      -1.879   2.243   0.000  0.00  0.00    +0.000 A 
ENDBRANCH  19  24
ENDBRANCH   1  19
TORSDOF 4
