REMARK  Name = RHP
REMARK  3 active torsions:
REMARK  status: ('A' for Active; 'I' for Inactive)
REMARK    1  A    between atoms: C_2  and  C_3
REMARK    2  A    between atoms: C_3  and  N_4
REMARK    3  A    between atoms: N_4  and  C_5
REMARK                            x       y       z     vdW  Elec       q    Type
REMARK                         _______ _______ _______ _____ _____    ______ ____
ROOT
ATOM      1  C   UNL     1      -0.471   0.035   0.000  0.00  0.00    +0.000 C 
ATOM      2  C   UNL     1      -0.956  -0.633   0.000  0.00  0.00    +0.000 C 
ATOM      3  C   UNL     1      -0.471  -1.300   0.000  0.00  0.00    +0.000 C 
ATOM      4  C   UNL     1       0.314  -1.045   0.000  0.00  0.00    +0.000 A 
ATOM      5  C   UNL     1       0.314  -0.220   0.000  0.00  0.00    +0.000 A 
ATOM      6  C   UNL     1       1.028   0.192   0.000  0.00  0.00    +0.000 A 
ATOM      7  C   UNL     1       1.028  -1.458   0.000  0.00  0.00    +0.000 A 
ATOM      8  C   UNL     1       1.743  -1.045   0.000  0.00  0.00    +0.000 A 
ATOM      9  C   UNL     1       1.743  -0.220   0.000  0.00  0.00    +0.000 A 
ATOM     10  O   UNL     1       2.457   0.192   0.000  0.00  0.00    +0.000 OA
ENDROOT
BRANCH   1  11
ATOM     11  N   UNL     1      -0.726   0.819   0.000  0.00  0.00    +0.000 NA
BRANCH  11  12
ATOM     12  C   UNL     1      -1.533   0.991   0.000  0.00  0.00    +0.000 C 
BRANCH  12  14
ATOM     13  C   UNL     1      -2.043   2.560   0.000  0.00  0.00    +0.000 C 
ATOM     14  C   UNL     1      -1.788   1.775   0.000  0.00  0.00    +0.000 C 
ENDBRANCH  12  14
ENDBRANCH  11  12
ENDBRANCH   1  11
TORSDOF 3
