REMARK  Name = RHS
REMARK  7 active torsions:
REMARK  status: ('A' for Active; 'I' for Inactive)
REMARK    1  A    between atoms: C_2  and  C_4
REMARK    2  A    between atoms: C_4  and  C_5
REMARK    3  A    between atoms: C_4  and  C_9
REMARK    4  A    between atoms: C_9  and  C_10
REMARK    5  A    between atoms: N_12  and  C_13
REMARK    6  A    between atoms: C_13  and  C_14
REMARK    7  A    between atoms: C_13  and  C_16
REMARK                            x       y       z     vdW  Elec       q    Type
REMARK                         _______ _______ _______ _____ _____    ______ ____
ROOT
ATOM      1  C   UNL     1      -0.553  -0.753   0.000  0.00  0.00    +0.000 C 
ENDROOT
BRANCH   1   2
ATOM      2  C   UNL     1       0.161  -0.340   0.000  0.00  0.00    +0.000 C 
ATOM      3  O   UNL     1       0.161   0.485   0.000  0.00  0.00    +0.000 OA
ATOM      4  N   UNL     1       0.876  -0.753   0.000  0.00  0.00    +0.000 NA
BRANCH   4   5
ATOM      5  C   UNL     1       1.590  -0.340   0.000  0.00  0.00    +0.000 C 
BRANCH   5   6
ATOM      6  C   UNL     1       2.305  -0.753   0.000  0.00  0.00    +0.000 C 
ATOM      7  C   UNL     1       3.019  -0.340   0.000  0.00  0.00    +0.000 C 
ENDBRANCH   5   6
BRANCH   5   8
ATOM      8  C   UNL     1       1.590   0.485   0.000  0.00  0.00    +0.000 C 
ATOM      9  C   UNL     1       2.305   0.897   0.000  0.00  0.00    +0.000 C 
ENDBRANCH   5   8
ENDBRANCH   4   5
ENDBRANCH   1   2
BRANCH   1  10
ATOM     10  C   UNL     1      -1.268  -0.340   0.000  0.00  0.00    +0.000 C 
BRANCH  10  11
ATOM     11  C   UNL     1      -1.268   0.485   0.000  0.00  0.00    +0.000 C 
ATOM     12  C   UNL     1      -1.268   1.310   0.000  0.00  0.00    +0.000 C 
ATOM     13  C   UNL     1      -2.093   0.485   0.000  0.00  0.00    +0.000 C 
ATOM     14  C   UNL     1      -0.443   0.485   0.000  0.00  0.00    +0.000 C 
ENDBRANCH  10  11
BRANCH  10  16
ATOM     15  N   UNL     1      -2.697  -0.340   0.000  0.00  0.00    +0.000 NA
ATOM     16  C   UNL     1      -1.982  -0.753   0.000  0.00  0.00    +0.000 C 
ATOM     17  O   UNL     1      -1.982  -1.578   0.000  0.00  0.00    +0.000 OA
ENDBRANCH  10  16
ENDBRANCH   1  10
TORSDOF 7
