REMARK  Name = RIN
REMARK  0 active torsions:
REMARK  status: ('A' for Active; 'I' for Inactive)
REMARK                            x       y       z     vdW  Elec       q    Type
REMARK                         _______ _______ _______ _____ _____    ______ ____
ROOT
ATOM      1  N   UNL     1       2.558   0.395   0.000  0.00  0.00    +0.000 NA
ATOM      2  C   UNL     1       1.812   0.042   0.000  0.00  0.00    +0.000 C 
ATOM      3  C   UNL     1       1.659  -0.768   0.000  0.00  0.00    +0.000 C 
ATOM      4  C   UNL     1       0.840  -0.873   0.000  0.00  0.00    +0.000 C 
ATOM      5  C   UNL     1       0.222  -1.532   0.000  0.00  0.00    +0.000 C 
ATOM      6  C   UNL     1      -0.588  -1.379   0.000  0.00  0.00    +0.000 C 
ATOM      7  C   UNL     1      -0.861  -0.600   0.000  0.00  0.00    +0.000 C 
ATOM      8  C   UNL     1      -1.672  -0.447   0.000  0.00  0.00    +0.000 C 
ATOM      9  C   UNL     1      -1.944   0.332   0.000  0.00  0.00    +0.000 C 
ATOM     10  C   UNL     1      -1.407   0.957   0.000  0.00  0.00    +0.000 C 
ATOM     11  C   UNL     1      -0.596   0.804   0.000  0.00  0.00    +0.000 C 
ATOM     12  C   UNL     1      -0.058   1.430   0.000  0.00  0.00    +0.000 C 
ATOM     13  N   UNL     1       0.753   1.276   0.000  0.00  0.00    +0.000 NA
ATOM     14  C   UNL     1       1.088   0.438   0.000  0.00  0.00    +0.000 C 
ATOM     15  O   UNL     1       0.470  -0.109   0.000  0.00  0.00    +0.000 OA
ENDROOT
TORSDOF 0
