REMARK  Name = RIV
REMARK  5 active torsions:
REMARK  status: ('A' for Active; 'I' for Inactive)
REMARK    1  A    between atoms: N_2  and  C_12
REMARK    2  A    between atoms: C_7  and  N_14
REMARK    3  A    between atoms: C_18  and  C_20
REMARK    4  A    between atoms: C_20  and  N_21
REMARK    5  A    between atoms: C_22  and  C_25
REMARK                            x       y       z     vdW  Elec       q    Type
REMARK                         _______ _______ _______ _____ _____    ______ ____
ROOT
ATOM      1  N   UNL     1       3.871   1.665   0.000  0.00  0.00    +0.000 N 
ATOM      2  C   UNL     1       3.616   0.880   0.000  0.00  0.00    +0.000 C 
ATOM      3  C   UNL     1       3.203   2.150   0.000  0.00  0.00    +0.000 C 
ATOM      4  O   UNL     1       2.791   0.880   0.000  0.00  0.00    +0.000 OA
ATOM      5  C   UNL     1       2.536   1.665   0.000  0.00  0.00    +0.000 C 
ATOM      6  O   UNL     1       4.101   0.213   0.000  0.00  0.00    +0.000 OA
ENDROOT
BRANCH   1   7
ATOM      7  C   UNL     1       4.655   1.920   0.000  0.00  0.00    +0.000 A 
ATOM      8  C   UNL     1       4.827   2.727   0.000  0.00  0.00    +0.000 A 
ATOM      9  C   UNL     1       5.268   1.368   0.000  0.00  0.00    +0.000 A 
ATOM     10  C   UNL     1       5.612   2.982   0.000  0.00  0.00    +0.000 A 
ATOM     11  C   UNL     1       6.053   1.623   0.000  0.00  0.00    +0.000 A 
ATOM     12  C   UNL     1       6.225   2.430   0.000  0.00  0.00    +0.000 A 
BRANCH  12  14
ATOM     13  C   UNL     1       7.622   2.133   0.000  0.00  0.00    +0.000 C 
ATOM     14  N   UNL     1       7.009   2.685   0.000  0.00  0.00    +0.000 N 
ATOM     15  C   UNL     1       8.407   2.388   0.000  0.00  0.00    +0.000 C 
ATOM     16  C   UNL     1       7.181   3.492   0.000  0.00  0.00    +0.000 C 
ATOM     17  O   UNL     1       8.579   3.195   0.000  0.00  0.00    +0.000 OA
ATOM     18  C   UNL     1       7.965   3.747   0.000  0.00  0.00    +0.000 C 
ATOM     19  O   UNL     1       6.568   4.044   0.000  0.00  0.00    +0.000 OA
ENDBRANCH  12  14
ENDBRANCH   1   7
BRANCH   5  20
ATOM     20  C   UNL     1       1.751   1.920   0.000  0.00  0.00    +0.000 C 
BRANCH  20  21
ATOM     21  N   UNL     1       1.580   2.727   0.000  0.00  0.00    +0.000 NA
ATOM     22  C   UNL     1       0.795   2.982   0.000  0.00  0.00    +0.000 C 
ATOM     23  O   UNL     1       0.182   2.430   0.000  0.00  0.00    +0.000 OA
BRANCH  22  26
ATOM     24  S   UNL     1      -0.130   4.125   0.000  0.00  0.00    +0.000 S 
ATOM     25  C   UNL     1      -0.044   4.945   0.000  0.00  0.00    +0.000 A 
ATOM     26  C   UNL     1       0.624   3.789   0.000  0.00  0.00    +0.000 A 
ATOM     27  C   UNL     1       0.763   5.117   0.000  0.00  0.00    +0.000 A 
ATOM     28  C   UNL     1       1.176   4.402   0.000  0.00  0.00    +0.000 A 
ATOM     29 CL   UNL     1      -0.657   5.497   0.000  0.00  0.00    +0.000 Cl
ENDBRANCH  22  26
ENDBRANCH  20  21
ENDBRANCH   5  20
TORSDOF 5
