REMARK  Name = RL2
REMARK  11 active torsions:
REMARK  status: ('A' for Active; 'I' for Inactive)
REMARK    1  A    between atoms: C_1  and  C_4
REMARK    2  A    between atoms: C_4  and  C_5
REMARK    3  A    between atoms: C_5  and  C_7
REMARK    4  A    between atoms: N_9  and  C_10
REMARK    5  A    between atoms: C_10  and  C_11
REMARK    6  A    between atoms: C_10  and  C_19
REMARK    7  A    between atoms: C_11  and  C_12
REMARK    8  A    between atoms: C_12  and  C_13
REMARK    9  A    between atoms: N_20  and  C_21
REMARK   10  A    between atoms: C_21  and  C_22
REMARK   11  A    between atoms: C_22  and  C_23
REMARK                            x       y       z     vdW  Elec       q    Type
REMARK                         _______ _______ _______ _____ _____    ______ ____
ROOT
ATOM      1  C   UNL     1      -1.163  -0.419   0.000  0.00  0.00    +0.000 C 
ENDROOT
BRANCH   1   4
ATOM      2  C   UNL     1      -2.311   0.432   0.000  0.00  0.00    +0.000 C 
ATOM      3  O   UNL     1      -1.819   1.095   0.000  0.00  0.00    +0.000 OA
ATOM      4  N   UNL     1      -1.983  -0.325   0.000  0.00  0.00    +0.000 NA
BRANCH   2   5
ATOM      5  C   UNL     1      -3.130   0.527   0.000  0.00  0.00    +0.000 C 
ATOM      6  O   UNL     1      -3.622  -0.135   0.000  0.00  0.00    +0.000 OA
BRANCH   5   7
ATOM      7  C   UNL     1      -3.458   1.284   0.000  0.00  0.00    +0.000 C 
BRANCH   7   8
ATOM      8  C   UNL     1      -4.278   1.379   0.000  0.00  0.00    +0.000 C 
ATOM      9  O   UNL     1      -4.606   2.136   0.000  0.00  0.00    +0.000 OA
ATOM     10  O   UNL     1      -4.769   0.716   0.000  0.00  0.00    +0.000 OA
ENDBRANCH   7   8
ENDBRANCH   5   7
ENDBRANCH   2   5
ENDBRANCH   1   4
BRANCH   1  11
ATOM     11  C   UNL     1      -0.672   0.243   0.000  0.00  0.00    +0.000 C 
ATOM     12  N   UNL     1       0.148   0.148   0.000  0.00  0.00    +0.000 NA
ATOM     13  O   UNL     1      -0.999   1.000   0.000  0.00  0.00    +0.000 OA
BRANCH  12  14
ATOM     14  C   UNL     1       0.640   0.811   0.000  0.00  0.00    +0.000 C 
BRANCH  14  15
ATOM     15  C   UNL     1       1.459   0.716   0.000  0.00  0.00    +0.000 C 
BRANCH  15  16
ATOM     16  C   UNL     1       1.951   1.379   0.000  0.00  0.00    +0.000 C 
ATOM     17  C   UNL     1       1.623   2.136   0.000  0.00  0.00    +0.000 C 
ATOM     18  C   UNL     1       2.771   1.284   0.000  0.00  0.00    +0.000 C 
ENDBRANCH  15  16
ENDBRANCH  14  15
ENDBRANCH  12  14
ENDBRANCH   1  11
BRANCH   1  19
ATOM     19  C   UNL     1      -0.836  -1.176   0.000  0.00  0.00    +0.000 C 
BRANCH  19  20
ATOM     20  C   UNL     1      -0.016  -1.271   0.000  0.00  0.00    +0.000 C 
BRANCH  20  21
ATOM     21  C   UNL     1       0.312  -2.028   0.000  0.00  0.00    +0.000 A 
ATOM     22  C   UNL     1       1.131  -2.123   0.000  0.00  0.00    +0.000 A 
ATOM     23  C   UNL     1       1.459  -2.880   0.000  0.00  0.00    +0.000 A 
ATOM     24  C   UNL     1       0.968  -3.542   0.000  0.00  0.00    +0.000 A 
ATOM     25  C   UNL     1       0.148  -3.448   0.000  0.00  0.00    +0.000 A 
ATOM     26  C   UNL     1      -0.180  -2.691   0.000  0.00  0.00    +0.000 A 
ENDBRANCH  20  21
ENDBRANCH  19  20
ENDBRANCH   1  19
TORSDOF 11
