REMARK  Name = RM2
REMARK  2 active torsions:
REMARK  status: ('A' for Active; 'I' for Inactive)
REMARK    1  A    between atoms: C_2  and  C_3
REMARK    2  A    between atoms: N_4  and  C_5
REMARK                            x       y       z     vdW  Elec       q    Type
REMARK                         _______ _______ _______ _____ _____    ______ ____
ROOT
ATOM      1  C   UNL     1      -0.289   0.122   0.000  0.00  0.00    +0.000 C 
ATOM      2  C   UNL     1      -0.774  -0.545   0.000  0.00  0.00    +0.000 C 
ATOM      3  C   UNL     1      -0.289  -1.212   0.000  0.00  0.00    +0.000 C 
ATOM      4  C   UNL     1       0.495  -0.958   0.000  0.00  0.00    +0.000 A 
ATOM      5  C   UNL     1       0.495  -0.133   0.000  0.00  0.00    +0.000 A 
ATOM      6  C   UNL     1       1.210   0.280   0.000  0.00  0.00    +0.000 A 
ATOM      7  C   UNL     1       1.210  -1.370   0.000  0.00  0.00    +0.000 A 
ATOM      8  C   UNL     1       1.924  -0.958   0.000  0.00  0.00    +0.000 A 
ATOM      9  C   UNL     1       1.924  -0.133   0.000  0.00  0.00    +0.000 A 
ATOM     10  O   UNL     1       1.210  -2.195   0.000  0.00  0.00    +0.000 OA
ENDROOT
BRANCH   1  12
ATOM     11  C   UNL     1      -1.351   1.079   0.000  0.00  0.00    +0.000 C 
ATOM     12  N   UNL     1      -0.544   0.907   0.000  0.00  0.00    +0.000 NA
BRANCH  11  14
ATOM     13  C   UNL     1      -2.413   2.035   0.000  0.00  0.00    +0.000 C 
ATOM     14  C   UNL     1      -1.606   1.863   0.000  0.00  0.00    +0.000 C 
ENDBRANCH  11  14
ENDBRANCH   1  12
TORSDOF 2
