REMARK  Name = RO4
REMARK  13 active torsions:
REMARK  status: ('A' for Active; 'I' for Inactive)
REMARK    1  A    between atoms: O_5  and  C_13
REMARK    2  A    between atoms: O_5  and  C_20
REMARK    3  A    between atoms: N_8  and  C_16
REMARK    4  A    between atoms: N_9  and  C_15
REMARK    5  A    between atoms: C_10  and  C_19
REMARK    6  A    between atoms: C_11  and  C_14
REMARK    7  A    between atoms: C_12  and  C_15
REMARK    8  A    between atoms: C_13  and  C_16
REMARK    9  A    between atoms: C_14  and  C_19
REMARK   10  A    between atoms: C_14  and  C_21
REMARK   11  A    between atoms: C_15  and  C_22
REMARK   12  A    between atoms: C_17  and  C_21
REMARK   13  A    between atoms: C_18  and  C_22
REMARK                            x       y       z     vdW  Elec       q    Type
REMARK                         _______ _______ _______ _____ _____    ______ ____
ROOT
ATOM      1  C   UNL     1      -0.153  -0.260   0.000  0.00  0.00    +0.000 C 
ENDROOT
BRANCH   1   3
ATOM      2  O   UNL     1      -1.581  -1.085   0.000  0.00  0.00    +0.000 OA
ATOM      3  N   UNL     1      -0.867   0.152   0.000  0.00  0.00    +0.000 NA
ATOM      4  C   UNL     1      -1.581  -0.260   0.000  0.00  0.00    +0.000 C 
BRANCH   4   5
ATOM      5  C   UNL     1      -2.296   0.152   0.000  0.00  0.00    +0.000 C 
BRANCH   5   6
ATOM      6  C   UNL     1      -3.010  -0.260   0.000  0.00  0.00    +0.000 C 
BRANCH   6  10
ATOM      7  O   UNL     1      -3.725   0.977   0.000  0.00  0.00    +0.000 OA
ATOM      8  O   UNL     1      -4.439  -1.085   0.000  0.00  0.00    +0.000 OA
ATOM      9  N   UNL     1      -4.439  -0.260   0.000  0.00  0.00    +0.000 NA
ATOM     10  C   UNL     1      -3.725   0.152   0.000  0.00  0.00    +0.000 C 
ENDBRANCH   6  10
ENDBRANCH   5   6
BRANCH   5  11
ATOM     11  C   UNL     1      -2.296   0.977   0.000  0.00  0.00    +0.000 C 
BRANCH  11  12
ATOM     12  C   UNL     1      -1.581   1.390   0.000  0.00  0.00    +0.000 C 
ATOM     13  C   UNL     1      -0.867   0.977   0.000  0.00  0.00    +0.000 C 
ATOM     14  C   UNL     1      -1.581   2.215   0.000  0.00  0.00    +0.000 C 
ENDBRANCH  11  12
ENDBRANCH   5  11
ENDBRANCH   4   5
ENDBRANCH   1   3
BRANCH   1  17
ATOM     15  O   UNL     1       0.562   0.977   0.000  0.00  0.00    +0.000 OA
ATOM     16  N   UNL     1       1.276  -0.260   0.000  0.00  0.00    +0.000 NA
ATOM     17  C   UNL     1       0.562   0.152   0.000  0.00  0.00    +0.000 C 
BRANCH  16  18
ATOM     18  C   UNL     1       1.991   0.152   0.000  0.00  0.00    +0.000 C 
ATOM     19  C   UNL     1       1.991   0.977   0.000  0.00  0.00    +0.000 C 
BRANCH  18  21
ATOM     20  O   UNL     1       2.705  -1.085   0.000  0.00  0.00    +0.000 OA
ATOM     21  C   UNL     1       2.705  -0.260   0.000  0.00  0.00    +0.000 C 
BRANCH  21  22
ATOM     22  O   UNL     1       3.420   0.152   0.000  0.00  0.00    +0.000 OA
BRANCH  22  23
ATOM     23  C   UNL     1       4.134  -0.260   0.000  0.00  0.00    +0.000 C 
ATOM     24  C   UNL     1       4.849   0.152   0.000  0.00  0.00    +0.000 C 
ENDBRANCH  22  23
ENDBRANCH  21  22
ENDBRANCH  18  21
ENDBRANCH  16  18
ENDBRANCH   1  17
BRANCH   1  25
ATOM     25  C   UNL     1      -0.153  -1.085   0.000  0.00  0.00    +0.000 C 
BRANCH  25  26
ATOM     26  C   UNL     1       0.562  -1.498   0.000  0.00  0.00    +0.000 C 
ATOM     27  C   UNL     1       0.562  -2.323   0.000  0.00  0.00    +0.000 C 
ATOM     28  C   UNL     1       1.276  -1.085   0.000  0.00  0.00    +0.000 C 
ENDBRANCH  25  26
ENDBRANCH   1  25
TORSDOF 13
