REMARK  Name = ROK
REMARK  4 active torsions:
REMARK  status: ('A' for Active; 'I' for Inactive)
REMARK    1  A    between atoms: S_2  and  N_4
REMARK    2  A    between atoms: S_2  and  C_11
REMARK    3  A    between atoms: N_7  and  C_8
REMARK    4  A    between atoms: C_8  and  C_9
REMARK                            x       y       z     vdW  Elec       q    Type
REMARK                         _______ _______ _______ _____ _____    ______ ____
ROOT
ATOM      1  O   UNL     1      20.232   6.472   0.000  0.00  0.00    +0.000 OA
ATOM      2  S   UNL     1      19.820   5.758   0.000  0.00  0.00    +0.000 S 
ATOM      3  O   UNL     1      19.407   5.043   0.000  0.00  0.00    +0.000 OA
ENDROOT
BRANCH   2   4
ATOM      4  C   UNL     1      19.105   6.170   0.000  0.00  0.00    +0.000 A 
ATOM      5  C   UNL     1      18.391   5.758   0.000  0.00  0.00    +0.000 A 
ATOM      6  C   UNL     1      17.676   6.170   0.000  0.00  0.00    +0.000 A 
ATOM      7  C   UNL     1      17.676   6.995   0.000  0.00  0.00    +0.000 A 
ATOM      8  N   UNL     1      16.962   7.408   0.000  0.00  0.00    +0.000 NA
ATOM      9  C   UNL     1      18.391   7.408   0.000  0.00  0.00    +0.000 A 
ATOM     10  C   UNL     1      19.105   6.995   0.000  0.00  0.00    +0.000 A 
ENDBRANCH   2   4
BRANCH   2  11
ATOM     11  N   UNL     1      20.534   5.345   0.000  0.00  0.00    +0.000 NA
ATOM     12  C   UNL     1      21.249   5.758   0.000  0.00  0.00    +0.000 C 
ATOM     13  O   UNL     1      21.249   6.583   0.000  0.00  0.00    +0.000 OA
ATOM     14  N   UNL     1      21.963   5.345   0.000  0.00  0.00    +0.000 NA
BRANCH  14  15
ATOM     15  C   UNL     1      22.678   5.758   0.000  0.00  0.00    +0.000 C 
BRANCH  15  16
ATOM     16  C   UNL     1      23.392   5.345   0.000  0.00  0.00    +0.000 C 
ATOM     17  S   UNL     1      24.107   5.758   0.000  0.00  0.00    +0.000 S 
ENDBRANCH  15  16
ENDBRANCH  14  15
ENDBRANCH   2  11
TORSDOF 4
