REMARK  Name = ROL
REMARK  4 active torsions:
REMARK  status: ('A' for Active; 'I' for Inactive)
REMARK    1  A    between atoms: C_1  and  C_7
REMARK    2  A    between atoms: C_3  and  O_13
REMARK    3  A    between atoms: C_4  and  O_19
REMARK    4  A    between atoms: O_13  and  C_14
REMARK                            x       y       z     vdW  Elec       q    Type
REMARK                         _______ _______ _______ _____ _____    ______ ____
ROOT
ATOM      1  C   UNL     1       0.329  -1.251   0.000  0.00  0.00    +0.000 A 
ATOM      2  C   UNL     1      -0.385  -0.838   0.000  0.00  0.00    +0.000 A 
ATOM      3  C   UNL     1      -0.385  -0.013   0.000  0.00  0.00    +0.000 A 
ATOM      4  C   UNL     1       0.329   0.399   0.000  0.00  0.00    +0.000 A 
ATOM      5  C   UNL     1       1.044  -0.013   0.000  0.00  0.00    +0.000 A 
ATOM      6  C   UNL     1       1.044  -0.838   0.000  0.00  0.00    +0.000 A 
ENDROOT
BRANCH   1   7
ATOM      7  C   UNL     1       0.329  -2.076   0.000  0.00  0.00    +0.000 C 
ATOM      8  C   UNL     1       0.997  -2.561   0.000  0.00  0.00    +0.000 C 
ATOM      9  C   UNL     1       0.742  -3.345   0.000  0.00  0.00    +0.000 C 
ATOM     10  O   UNL     1       1.227  -4.013   0.000  0.00  0.00    +0.000 OA
ATOM     11  N   UNL     1      -0.083  -3.345   0.000  0.00  0.00    +0.000 NA
ATOM     12  C   UNL     1      -0.338  -2.561   0.000  0.00  0.00    +0.000 C 
ENDBRANCH   1   7
BRANCH   4  13
ATOM     13  O   UNL     1       0.329   1.224   0.000  0.00  0.00    +0.000 OA
ATOM     14  C   UNL     1       1.044   1.637   0.000  0.00  0.00    +0.000 C 
ENDBRANCH   4  13
BRANCH   3  15
ATOM     15  O   UNL     1      -1.100   0.399   0.000  0.00  0.00    +0.000 OA
BRANCH  15  16
ATOM     16  C   UNL     1      -1.100   1.224   0.000  0.00  0.00    +0.000 C 
ATOM     17  C   UNL     1      -1.767   1.709   0.000  0.00  0.00    +0.000 C 
ATOM     18  C   UNL     1      -1.512   2.494   0.000  0.00  0.00    +0.000 C 
ATOM     19  C   UNL     1      -0.687   2.494   0.000  0.00  0.00    +0.000 C 
ATOM     20  C   UNL     1      -0.432   1.709   0.000  0.00  0.00    +0.000 C 
ENDBRANCH  15  16
ENDBRANCH   3  15
TORSDOF 4
