REMARK  Name = RP4
REMARK  4 active torsions:
REMARK  status: ('A' for Active; 'I' for Inactive)
REMARK    1  A    between atoms: C_2  and  C_4
REMARK    2  A    between atoms: C_11  and  C_13
REMARK    3  A    between atoms: C_17  and  S_19
REMARK    4  A    between atoms: S_19  and  C_20
REMARK                            x       y       z     vdW  Elec       q    Type
REMARK                         _______ _______ _______ _____ _____    ______ ____
ROOT
ATOM      1  C   UNL     1      -0.197  -0.948   0.000  0.00  0.00    +0.000 A 
ATOM      2  C   UNL     1      -0.197  -1.773   0.000  0.00  0.00    +0.000 A 
ATOM      3  C   UNL     1      -0.911  -2.186   0.000  0.00  0.00    +0.000 A 
ATOM      4  C   UNL     1      -1.626  -1.773   0.000  0.00  0.00    +0.000 A 
ATOM      5  C   UNL     1      -1.626  -0.948   0.000  0.00  0.00    +0.000 A 
ATOM      6  C   UNL     1      -0.911  -0.536   0.000  0.00  0.00    +0.000 A 
ENDROOT
BRANCH   1  14
ATOM      7  C   UNL     1       1.232   0.702   0.000  0.00  0.00    +0.000 C 
ATOM      8  O   UNL     1       0.702   1.334   0.000  0.00  0.00    +0.000 OA
ATOM      9  C   UNL     1       1.946   0.289   0.000  0.00  0.00    +0.000 C 
ATOM     10  C   UNL     1       1.946  -0.536   0.000  0.00  0.00    +0.000 C 
ATOM     11  O   UNL     1       2.661  -0.948   0.000  0.00  0.00    +0.000 OA
ATOM     12  C   UNL     1       1.232  -0.948   0.000  0.00  0.00    +0.000 C 
ATOM     13  O   UNL     1       1.232  -1.773   0.000  0.00  0.00    +0.000 OA
ATOM     14  C   UNL     1       0.517  -0.536   0.000  0.00  0.00    +0.000 C 
ATOM     15  C   UNL     1       0.517   0.289   0.000  0.00  0.00    +0.000 C 
BRANCH   7  17
ATOM     16  O   UNL     1       1.480   2.109   0.000  0.00  0.00    +0.000 OA
ATOM     17  C   UNL     1       1.762   1.334   0.000  0.00  0.00    +0.000 C 
ATOM     18  O   UNL     1       2.575   1.190   0.000  0.00  0.00    +0.000 OA
ENDBRANCH   7  17
ENDBRANCH   1  14
BRANCH   5  19
ATOM     19  S   UNL     1      -2.341  -0.536   0.000  0.00  0.00    +0.000 S 
BRANCH  19  20
ATOM     20  C   UNL     1      -2.341   0.289   0.000  0.00  0.00    +0.000 A 
ATOM     21  C   UNL     1      -3.055   0.702   0.000  0.00  0.00    +0.000 A 
ATOM     22  C   UNL     1      -3.055   1.527   0.000  0.00  0.00    +0.000 A 
ATOM     23  C   UNL     1      -2.341   1.939   0.000  0.00  0.00    +0.000 A 
ATOM     24  C   UNL     1      -1.626   1.527   0.000  0.00  0.00    +0.000 A 
ATOM     25  C   UNL     1      -1.626   0.702   0.000  0.00  0.00    +0.000 A 
ENDBRANCH  19  20
ENDBRANCH   5  19
TORSDOF 4
