REMARK  Name = RPN
REMARK  4 active torsions:
REMARK  status: ('A' for Active; 'I' for Inactive)
REMARK    1  A    between atoms: C_1  and  C_2
REMARK    2  A    between atoms: C_1  and  N_5
REMARK    3  A    between atoms: C_2  and  C_4
REMARK    4  A    between atoms: C_10  and  N_13
REMARK                            x       y       z     vdW  Elec       q    Type
REMARK                         _______ _______ _______ _____ _____    ______ ____
ROOT
ATOM      1  C   UNL     1       0.093  -0.225   0.000  0.00  0.00    +0.000 A 
ATOM      2  C   UNL     1       0.093  -1.050   0.000  0.00  0.00    +0.000 A 
ATOM      3  C   UNL     1      -0.621  -1.462   0.000  0.00  0.00    +0.000 A 
ATOM      4  C   UNL     1      -1.335  -1.050   0.000  0.00  0.00    +0.000 A 
ATOM      5  C   UNL     1      -1.335  -0.225   0.000  0.00  0.00    +0.000 A 
ATOM      6  C   UNL     1      -0.621   0.188   0.000  0.00  0.00    +0.000 A 
ENDROOT
BRANCH   4   7
ATOM      7  N   UNL     1      -2.050  -1.462   0.000  0.00  0.00    +0.000 N 
ATOM      8  O   UNL     1      -2.050  -2.287   0.000  0.00  0.00    +0.000 OA
ATOM      9  O   UNL     1      -2.764  -1.050   0.000  0.00  0.00    +0.000 OA
ENDBRANCH   4   7
BRANCH   1  10
ATOM     10  C   UNL     1       0.808   0.188   0.000  0.00  0.00    +0.000 C 
ATOM     11  O   UNL     1       1.522  -0.225   0.000  0.00  0.00    +0.000 OA
BRANCH  10  12
ATOM     12  C   UNL     1       0.808   1.013   0.000  0.00  0.00    +0.000 C 
BRANCH  12  13
ATOM     13  N   UNL     1       1.522   1.425   0.000  0.00  0.00    +0.000 NA
ATOM     14  N   UNL     1       1.522   2.250   0.000  0.00  0.00    +0.000 NA
ATOM     15  N   UNL     1       1.522   3.075   0.000  0.00  0.00    +0.000 NA
ENDBRANCH  12  13
ENDBRANCH  10  12
ENDBRANCH   1  10
TORSDOF 4
