REMARK  Name = RQ3
REMARK  6 active torsions:
REMARK  status: ('A' for Active; 'I' for Inactive)
REMARK    1  A    between atoms: C_1  and  C_4
REMARK    2  A    between atoms: C_4  and  O_7
REMARK    3  A    between atoms: O_7  and  C_8
REMARK    4  A    between atoms: C_11  and  C_14
REMARK    5  A    between atoms: C_14  and  C_15
REMARK    6  A    between atoms: N_17  and  C_18
REMARK                            x       y       z     vdW  Elec       q    Type
REMARK                         _______ _______ _______ _____ _____    ______ ____
ROOT
ATOM      1  C   UNL     1       0.025   1.879   0.000  0.00  0.00    +0.000 A 
ATOM      2  C   UNL     1       0.740   1.467   0.000  0.00  0.00    +0.000 A 
ATOM      3  C   UNL     1       0.740   0.642   0.000  0.00  0.00    +0.000 A 
ATOM      4  C   UNL     1       0.025   0.229   0.000  0.00  0.00    +0.000 A 
ATOM      5  C   UNL     1      -0.689   1.467   0.000  0.00  0.00    +0.000 A 
ATOM      6  C   UNL     1      -0.689   0.642   0.000  0.00  0.00    +0.000 A 
ENDROOT
BRANCH   1   7
ATOM      7  O   UNL     1       0.025   2.704   0.000  0.00  0.00    +0.000 OA
BRANCH   7   8
ATOM      8  C   UNL     1      -0.689   3.117   0.000  0.00  0.00    +0.000 C 
ATOM      9  C   UNL     1      -1.101   2.402   0.000  0.00  0.00    +0.000 C 
ATOM     10  C   UNL     1      -0.277   3.831   0.000  0.00  0.00    +0.000 C 
BRANCH   8  11
ATOM     11  C   UNL     1      -1.403   3.529   0.000  0.00  0.00    +0.000 C 
ATOM     12  O   UNL     1      -1.403   4.354   0.000  0.00  0.00    +0.000 OA
ATOM     13  O   UNL     1      -2.118   3.117   0.000  0.00  0.00    +0.000 OA
ENDBRANCH   8  11
ENDBRANCH   7   8
ENDBRANCH   1   7
BRANCH   4  14
ATOM     14  C   UNL     1       0.025  -0.596   0.000  0.00  0.00    +0.000 C 
BRANCH  14  15
ATOM     15  C   UNL     1      -0.689  -1.008   0.000  0.00  0.00    +0.000 C 
ATOM     16  O   UNL     1      -1.403  -0.596   0.000  0.00  0.00    +0.000 OA
ATOM     17  N   UNL     1      -0.689  -1.833   0.000  0.00  0.00    +0.000 NA
BRANCH  17  18
ATOM     18  C   UNL     1       0.025  -2.246   0.000  0.00  0.00    +0.000 A 
ATOM     19  C   UNL     1       0.740  -1.833   0.000  0.00  0.00    +0.000 A 
ATOM     20  C   UNL     1       1.454  -2.246   0.000  0.00  0.00    +0.000 A 
ATOM     21  C   UNL     1       1.454  -3.071   0.000  0.00  0.00    +0.000 A 
ATOM     22  C   UNL     1       0.025  -3.071   0.000  0.00  0.00    +0.000 A 
ATOM     23  C   UNL     1       0.740  -3.483   0.000  0.00  0.00    +0.000 A 
ATOM     24  C   UNL     1       2.169  -1.833   0.000  0.00  0.00    +0.000 C 
ATOM     25  C   UNL     1       0.740  -4.308   0.000  0.00  0.00    +0.000 C 
ENDBRANCH  17  18
ENDBRANCH  14  15
ENDBRANCH   4  14
TORSDOF 6
