REMARK  Name = RRP
REMARK  5 active torsions:
REMARK  status: ('A' for Active; 'I' for Inactive)
REMARK    1  A    between atoms: C_2  and  C_4
REMARK    2  A    between atoms: C_6  and  C_10
REMARK    3  A    between atoms: C_10  and  N_11
REMARK    4  A    between atoms: N_15  and  S_18
REMARK    5  A    between atoms: S_18  and  C_21
REMARK                            x       y       z     vdW  Elec       q    Type
REMARK                         _______ _______ _______ _____ _____    ______ ____
ROOT
ATOM      1  N   UNL     1      -1.067   0.440   0.000  0.00  0.00    +0.000 N 
ATOM      2  C   UNL     1      -0.654   1.154   0.000  0.00  0.00    +0.000 C 
ATOM      3  O   UNL     1      -1.067   1.869   0.000  0.00  0.00    +0.000 OA
ATOM      4  C   UNL     1       0.171   1.154   0.000  0.00  0.00    +0.000 C 
ATOM      5  N   UNL     1       0.583   0.440   0.000  0.00  0.00    +0.000 NA
ATOM      6  C   UNL     1       0.171  -0.275   0.000  0.00  0.00    +0.000 C 
ATOM      7  C   UNL     1      -0.654  -0.275   0.000  0.00  0.00    +0.000 C 
ENDROOT
BRANCH   5   8
ATOM      8  S   UNL     1       1.408   0.440   0.000  0.00  0.00    +0.000 S 
ATOM      9  O   UNL     1       1.408  -0.385   0.000  0.00  0.00    +0.000 OA
ATOM     10  O   UNL     1       1.408   1.265   0.000  0.00  0.00    +0.000 OA
BRANCH   8  11
ATOM     11  C   UNL     1       2.233   0.440   0.000  0.00  0.00    +0.000 A 
ATOM     12  C   UNL     1       2.718  -0.228   0.000  0.00  0.00    +0.000 A 
ATOM     13  C   UNL     1       3.503   0.027   0.000  0.00  0.00    +0.000 A 
ATOM     14  C   UNL     1       3.503   0.852   0.000  0.00  0.00    +0.000 A 
ATOM     15  S   UNL     1       2.718   1.107   0.000  0.00  0.00    +0.000 S 
ATOM     16  C   UNL     1       4.217   1.265   0.000  0.00  0.00    +0.000 A 
ATOM     17  C   UNL     1       4.932   0.852   0.000  0.00  0.00    +0.000 A 
ATOM     18 CL   UNL     1       5.646   1.265   0.000  0.00  0.00    +0.000 Cl
ATOM     19  C   UNL     1       4.932   0.027   0.000  0.00  0.00    +0.000 A 
ATOM     20  C   UNL     1       4.217  -0.385   0.000  0.00  0.00    +0.000 A 
ENDBRANCH   8  11
ENDBRANCH   5   8
BRANCH   1  21
ATOM     21  C   UNL     1      -1.892   0.440   0.000  0.00  0.00    +0.000 C 
BRANCH  21  24
ATOM     22  C   UNL     1      -3.542  -0.989   0.000  0.00  0.00    +0.000 A 
ATOM     23  C   UNL     1      -3.129  -0.275   0.000  0.00  0.00    +0.000 A 
ATOM     24  C   UNL     1      -2.304  -0.275   0.000  0.00  0.00    +0.000 A 
ATOM     25  C   UNL     1      -1.892  -0.989   0.000  0.00  0.00    +0.000 A 
ATOM     26  C   UNL     1      -2.304  -1.704   0.000  0.00  0.00    +0.000 A 
ATOM     27  C   UNL     1      -3.129  -1.704   0.000  0.00  0.00    +0.000 A 
BRANCH  22  29
ATOM     28  N   UNL     1      -4.779  -1.704   0.000  0.00  0.00    +0.000 NA
ATOM     29  C   UNL     1      -4.367  -0.989   0.000  0.00  0.00    +0.000 C 
ATOM     30  N   UNL     1      -4.779  -0.275   0.000  0.00  0.00    +0.000 NA
ENDBRANCH  22  29
ENDBRANCH  21  24
ENDBRANCH   1  21
TORSDOF 5
