REMARK  Name = RRR
REMARK  5 active torsions:
REMARK  status: ('A' for Active; 'I' for Inactive)
REMARK    1  A    between atoms: C_9  and  C_10
REMARK    2  A    between atoms: C_10  and  N_11
REMARK    3  A    between atoms: N_15  and  S_18
REMARK    4  A    between atoms: S_18  and  C_21
REMARK    5  A    between atoms: C_22  and  C_23
REMARK                            x       y       z     vdW  Elec       q    Type
REMARK                         _______ _______ _______ _____ _____    ______ ____
ROOT
ATOM      1  N   UNL     1       0.166  -1.907   0.000  0.00  0.00    +0.000 N 
ATOM      2  C   UNL     1      -0.659  -1.907   0.000  0.00  0.00    +0.000 C 
ATOM      3  O   UNL     1      -1.071  -2.622   0.000  0.00  0.00    +0.000 OA
ATOM      4  C   UNL     1      -1.071  -1.193   0.000  0.00  0.00    +0.000 C 
ATOM      5  N   UNL     1      -0.659  -0.478   0.000  0.00  0.00    +0.000 NA
ATOM      6  C   UNL     1       0.166  -0.478   0.000  0.00  0.00    +0.000 C 
ATOM      7  C   UNL     1       0.579  -1.193   0.000  0.00  0.00    +0.000 C 
ENDROOT
BRANCH   5   8
ATOM      8  S   UNL     1      -1.071   0.236   0.000  0.00  0.00    +0.000 S 
ATOM      9  O   UNL     1      -0.357   0.649   0.000  0.00  0.00    +0.000 OA
ATOM     10  O   UNL     1      -1.786  -0.176   0.000  0.00  0.00    +0.000 OA
BRANCH   8  11
ATOM     11  C   UNL     1      -1.484   0.951   0.000  0.00  0.00    +0.000 C 
ATOM     12  C   UNL     1      -1.071   1.665   0.000  0.00  0.00    +0.000 C 
BRANCH  12  13
ATOM     13  C   UNL     1      -1.484   2.380   0.000  0.00  0.00    +0.000 A 
ATOM     14  C   UNL     1      -2.304   2.466   0.000  0.00  0.00    +0.000 A 
ATOM     15  C   UNL     1      -2.476   3.273   0.000  0.00  0.00    +0.000 A 
ATOM     16  C   UNL     1      -1.762   3.686   0.000  0.00  0.00    +0.000 A 
ATOM     17 CL   UNL     1      -1.675   4.506   0.000  0.00  0.00    +0.000 Cl
ATOM     18  S   UNL     1      -1.148   3.133   0.000  0.00  0.00    +0.000 S 
ENDBRANCH  12  13
ENDBRANCH   8  11
ENDBRANCH   5   8
BRANCH   1  19
ATOM     19  C   UNL     1       0.579  -2.622   0.000  0.00  0.00    +0.000 C 
BRANCH  19  28
ATOM     20  N   UNL     1       1.888  -3.289   0.000  0.00  0.00    +0.000 NA
ATOM     21  C   UNL     1       2.673  -3.034   0.000  0.00  0.00    +0.000 A 
ATOM     22  C   UNL     1       2.673  -2.209   0.000  0.00  0.00    +0.000 A 
ATOM     23  C   UNL     1       3.388  -1.796   0.000  0.00  0.00    +0.000 A 
ATOM     24  N   UNL     1       4.102  -2.209   0.000  0.00  0.00    +0.000 NA
ATOM     25  C   UNL     1       4.102  -3.034   0.000  0.00  0.00    +0.000 A 
ATOM     26  C   UNL     1       3.388  -3.446   0.000  0.00  0.00    +0.000 A 
ATOM     27  C   UNL     1       1.888  -1.954   0.000  0.00  0.00    +0.000 A 
ATOM     28  C   UNL     1       1.403  -2.622   0.000  0.00  0.00    +0.000 A 
ENDBRANCH  19  28
ENDBRANCH   1  19
TORSDOF 5
