REMARK  Name = RRS
REMARK  6 active torsions:
REMARK  status: ('A' for Active; 'I' for Inactive)
REMARK    1  A    between atoms: C_1  and  C_5
REMARK    2  A    between atoms: C_5  and  C_6
REMARK    3  A    between atoms: C_6  and  C_7
REMARK    4  A    between atoms: C_6  and  C_21
REMARK    5  A    between atoms: N_9  and  C_10
REMARK    6  A    between atoms: C_21  and  C_22
REMARK                            x       y       z     vdW  Elec       q    Type
REMARK                         _______ _______ _______ _____ _____    ______ ____
ROOT
ATOM      1  C   UNL     1      -0.778   0.131   0.000  0.00  0.00    +0.000 C 
ATOM      2  C   UNL     1      -1.555  -0.148   0.000  0.00  0.00    +0.000 C 
ATOM      3  O   UNL     1      -1.785  -0.940   0.000  0.00  0.00    +0.000 OA
ATOM      4  N   UNL     1      -2.060   0.504   0.000  0.00  0.00    +0.000 NA
ATOM      5  C   UNL     1      -1.595   1.186   0.000  0.00  0.00    +0.000 C 
ATOM      6  C   UNL     1      -1.678   2.085   0.000  0.00  0.00    +0.000 C 
ATOM      7  C   UNL     1      -1.026   2.590   0.000  0.00  0.00    +0.000 C 
ATOM      8  C   UNL     1      -0.263   2.278   0.000  0.00  0.00    +0.000 C 
ATOM      9  C   UNL     1       0.390   2.783   0.000  0.00  0.00    +0.000 C 
ATOM     10  C   UNL     1       1.153   2.471   0.000  0.00  0.00    +0.000 C 
ATOM     11  N   UNL     1       1.265   1.653   0.000  0.00  0.00    +0.000 N 
ATOM     12  C   UNL     1       0.071  -0.174   0.000  0.00  0.00    +0.000 C 
ATOM     13  C   UNL     1       0.724   0.331   0.000  0.00  0.00    +0.000 A 
ATOM     14  C   UNL     1       0.613   1.148   0.000  0.00  0.00    +0.000 A 
ATOM     15  C   UNL     1       1.582   0.357   0.000  0.00  0.00    +0.000 A 
ATOM     16  C   UNL     1       1.895   1.120   0.000  0.00  0.00    +0.000 A 
ATOM     17  C   UNL     1       2.087  -0.296   0.000  0.00  0.00    +0.000 A 
ATOM     18  C   UNL     1       2.712   1.232   0.000  0.00  0.00    +0.000 A 
ATOM     19  C   UNL     1       2.905  -0.184   0.000  0.00  0.00    +0.000 A 
ATOM     20  C   UNL     1       3.217   0.579   0.000  0.00  0.00    +0.000 A 
ENDROOT
BRANCH   1  23
ATOM     21  C   UNL     1      -0.064  -1.107   0.000  0.00  0.00    +0.000 C 
ATOM     22  O   UNL     1       0.651  -0.694   0.000  0.00  0.00    +0.000 OA
ATOM     23  N   UNL     1      -0.778  -0.694   0.000  0.00  0.00    +0.000 NA
BRANCH  21  24
ATOM     24  C   UNL     1      -0.064  -1.932   0.000  0.00  0.00    +0.000 C 
BRANCH  24  25
ATOM     25  C   UNL     1      -0.778  -2.344   0.000  0.00  0.00    +0.000 C 
BRANCH  25  26
ATOM     26  C   UNL     1      -1.493  -1.932   0.000  0.00  0.00    +0.000 C 
ATOM     27  O   UNL     1      -1.493  -1.107   0.000  0.00  0.00    +0.000 OA
ATOM     28  N   UNL     1      -2.207  -2.344   0.000  0.00  0.00    +0.000 NA
ATOM     29  O   UNL     1      -2.207  -3.169   0.000  0.00  0.00    +0.000 OA
ENDBRANCH  25  26
ENDBRANCH  24  25
BRANCH  24  30
ATOM     30  C   UNL     1       0.651  -2.344   0.000  0.00  0.00    +0.000 C 
BRANCH  30  31
ATOM     31  C   UNL     1       1.365  -1.932   0.000  0.00  0.00    +0.000 C 
ATOM     32  C   UNL     1       1.365  -1.107   0.000  0.00  0.00    +0.000 C 
ATOM     33  C   UNL     1       2.080  -2.344   0.000  0.00  0.00    +0.000 C 
ENDBRANCH  30  31
ENDBRANCH  24  30
ENDBRANCH  21  24
ENDBRANCH   1  23
TORSDOF 6
