REMARK  Name = RRT
REMARK  6 active torsions:
REMARK  status: ('A' for Active; 'I' for Inactive)
REMARK    1  A    between atoms: C_2  and  C_3
REMARK    2  A    between atoms: C_3  and  C_4
REMARK    3  A    between atoms: C_3  and  N_13
REMARK    4  A    between atoms: C_4  and  C_5
REMARK    5  A    between atoms: C_11  and  C_14
REMARK    6  A    between atoms: C_14  and  C_15
REMARK                            x       y       z     vdW  Elec       q    Type
REMARK                         _______ _______ _______ _____ _____    ______ ____
ROOT
ATOM      1  C   UNL     1      -0.203   0.216   0.000  0.00  0.00    +0.000 C 
ENDROOT
BRANCH   1   4
ATOM      2  C   UNL     1       1.226   0.216   0.000  0.00  0.00    +0.000 C 
ATOM      3  O   UNL     1       1.226  -0.609   0.000  0.00  0.00    +0.000 OA
ATOM      4  N   UNL     1       0.511   0.629   0.000  0.00  0.00    +0.000 NA
BRANCH   2   5
ATOM      5  C   UNL     1       1.940   0.629   0.000  0.00  0.00    +0.000 C 
BRANCH   5   6
ATOM      6  C   UNL     1       2.655   0.216   0.000  0.00  0.00    +0.000 C 
ATOM      7  O   UNL     1       3.369   0.629   0.000  0.00  0.00    +0.000 OA
ATOM      8  O   UNL     1       2.655  -0.609   0.000  0.00  0.00    +0.000 OA
ENDBRANCH   5   6
ENDBRANCH   2   5
ENDBRANCH   1   4
BRANCH   1  10
ATOM      9  S   UNL     1       0.511  -1.021   0.000  0.00  0.00    +0.000 S 
ATOM     10  C   UNL     1      -0.203  -0.609   0.000  0.00  0.00    +0.000 C 
ENDBRANCH   1  10
BRANCH   1  11
ATOM     11  C   UNL     1      -0.918   0.629   0.000  0.00  0.00    +0.000 C 
BRANCH  11  12
ATOM     12  C   UNL     1      -1.632   0.216   0.000  0.00  0.00    +0.000 A 
ATOM     13  C   UNL     1      -1.632  -0.609   0.000  0.00  0.00    +0.000 A 
ATOM     14  C   UNL     1      -2.347   0.629   0.000  0.00  0.00    +0.000 A 
ATOM     15  C   UNL     1      -2.347  -1.021   0.000  0.00  0.00    +0.000 A 
ATOM     16  C   UNL     1      -3.061   0.216   0.000  0.00  0.00    +0.000 A 
ATOM     17  C   UNL     1      -3.061  -0.609   0.000  0.00  0.00    +0.000 A 
ENDBRANCH  11  12
ENDBRANCH   1  11
TORSDOF 6
