REMARK  Name = RS1
REMARK  6 active torsions:
REMARK  status: ('A' for Active; 'I' for Inactive)
REMARK    1  A    between atoms: C_5  and  O_7
REMARK    2  A    between atoms: O_7  and  C_8
REMARK    3  A    between atoms: C_11  and  S_14
REMARK    4  A    between atoms: S_14  and  C_17
REMARK    5  A    between atoms: C_17  and  C_18
REMARK    6  A    between atoms: C_18  and  C_24
REMARK                            x       y       z     vdW  Elec       q    Type
REMARK                         _______ _______ _______ _____ _____    ______ ____
ROOT
ATOM      1  C   UNL     1       1.071  -1.486   0.000  0.00  0.00    +0.000 A 
ATOM      2  C   UNL     1       0.357  -1.898   0.000  0.00  0.00    +0.000 A 
ATOM      3  C   UNL     1      -0.358  -1.486   0.000  0.00  0.00    +0.000 A 
ATOM      4  C   UNL     1      -0.358  -0.661   0.000  0.00  0.00    +0.000 A 
ATOM      5  C   UNL     1       0.357  -0.248   0.000  0.00  0.00    +0.000 A 
ATOM      6  C   UNL     1       1.071  -0.661   0.000  0.00  0.00    +0.000 A 
ENDROOT
BRANCH   4   7
ATOM      7  S   UNL     1      -1.072  -0.248   0.000  0.00  0.00    +0.000 S 
ATOM      8  O   UNL     1      -1.485  -0.963   0.000  0.00  0.00    +0.000 OA
ATOM      9  O   UNL     1      -0.660   0.466   0.000  0.00  0.00    +0.000 OA
BRANCH   7  10
ATOM     10  C   UNL     1      -1.787   0.164   0.000  0.00  0.00    +0.000 C 
BRANCH  10  11
ATOM     11  C   UNL     1      -1.787   0.989   0.000  0.00  0.00    +0.000 C 
ATOM     12  C   UNL     1      -2.069   1.765   0.000  0.00  0.00    +0.000 C 
ATOM     13  C   UNL     1      -1.538   2.397   0.000  0.00  0.00    +0.000 C 
ATOM     14  O   UNL     1      -0.726   2.253   0.000  0.00  0.00    +0.000 OA
ATOM     15  C   UNL     1      -0.444   1.478   0.000  0.00  0.00    +0.000 C 
ATOM     16  C   UNL     1      -0.974   0.846   0.000  0.00  0.00    +0.000 C 
BRANCH  11  17
ATOM     17  C   UNL     1      -2.599   0.846   0.000  0.00  0.00    +0.000 C 
ATOM     18  N   UNL     1      -2.881   0.071   0.000  0.00  0.00    +0.000 NA
ATOM     19  O   UNL     1      -3.129   1.478   0.000  0.00  0.00    +0.000 OA
ATOM     20  O   UNL     1      -3.694  -0.072   0.000  0.00  0.00    +0.000 OA
ENDBRANCH  11  17
ENDBRANCH  10  11
ENDBRANCH   7  10
ENDBRANCH   4   7
BRANCH   1  21
ATOM     21  O   UNL     1       1.786  -1.898   0.000  0.00  0.00    +0.000 OA
BRANCH  21  26
ATOM     22  C   UNL     1       3.215  -0.248   0.000  0.00  0.00    +0.000 A 
ATOM     23  C   UNL     1       3.929  -0.661   0.000  0.00  0.00    +0.000 A 
ATOM     24  C   UNL     1       3.929  -1.486   0.000  0.00  0.00    +0.000 A 
ATOM     25  C   UNL     1       3.215  -1.898   0.000  0.00  0.00    +0.000 A 
ATOM     26  C   UNL     1       2.500  -1.486   0.000  0.00  0.00    +0.000 A 
ATOM     27  C   UNL     1       2.500  -0.661   0.000  0.00  0.00    +0.000 A 
ATOM     28 CL   UNL     1       4.644  -0.248   0.000  0.00  0.00    +0.000 Cl
ENDBRANCH  21  26
ENDBRANCH   1  21
TORSDOF 6
