REMARK  Name = RS2
REMARK  6 active torsions:
REMARK  status: ('A' for Active; 'I' for Inactive)
REMARK    1  A    between atoms: C_5  and  O_7
REMARK    2  A    between atoms: O_7  and  C_8
REMARK    3  A    between atoms: C_11  and  S_14
REMARK    4  A    between atoms: S_14  and  C_15
REMARK    5  A    between atoms: C_15  and  C_18
REMARK    6  A    between atoms: C_18  and  C_19
REMARK                            x       y       z     vdW  Elec       q    Type
REMARK                         _______ _______ _______ _____ _____    ______ ____
ROOT
ATOM      1  S   UNL     1      -1.067   0.083   0.000  0.00  0.00    +0.000 S 
ATOM      2  O   UNL     1      -0.655   0.797   0.000  0.00  0.00    +0.000 OA
ATOM      3  O   UNL     1      -1.480  -0.632   0.000  0.00  0.00    +0.000 OA
ENDROOT
BRANCH   1   4
ATOM      4  C   UNL     1      -1.782   0.495   0.000  0.00  0.00    +0.000 C 
ATOM      5  C   UNL     1      -2.064  -0.280   0.000  0.00  0.00    +0.000 C 
ATOM      6  C   UNL     1      -2.877  -0.423   0.000  0.00  0.00    +0.000 C 
ATOM      7  O   UNL     1      -3.407   0.209   0.000  0.00  0.00    +0.000 OA
ATOM      8  C   UNL     1      -3.125   0.984   0.000  0.00  0.00    +0.000 C 
ATOM      9  C   UNL     1      -2.312   1.127   0.000  0.00  0.00    +0.000 C 
BRANCH   4  10
ATOM     10  C   UNL     1      -1.252   1.127   0.000  0.00  0.00    +0.000 C 
BRANCH  10  11
ATOM     11  C   UNL     1      -1.534   1.903   0.000  0.00  0.00    +0.000 C 
ATOM     12  O   UNL     1      -2.346   2.046   0.000  0.00  0.00    +0.000 OA
ATOM     13  N   UNL     1      -1.004   2.534   0.000  0.00  0.00    +0.000 NA
ATOM     14  O   UNL     1      -1.286   3.310   0.000  0.00  0.00    +0.000 OA
ENDBRANCH  10  11
ENDBRANCH   4  10
ENDBRANCH   1   4
BRANCH   1  18
ATOM     15  C   UNL     1       1.076  -1.155   0.000  0.00  0.00    +0.000 A 
ATOM     16  C   UNL     1       0.361  -1.567   0.000  0.00  0.00    +0.000 A 
ATOM     17  C   UNL     1      -0.353  -1.155   0.000  0.00  0.00    +0.000 A 
ATOM     18  C   UNL     1      -0.353  -0.330   0.000  0.00  0.00    +0.000 A 
ATOM     19  C   UNL     1       0.361   0.083   0.000  0.00  0.00    +0.000 A 
ATOM     20  C   UNL     1       1.076  -0.330   0.000  0.00  0.00    +0.000 A 
BRANCH  15  21
ATOM     21  O   UNL     1       1.790  -1.567   0.000  0.00  0.00    +0.000 OA
BRANCH  21  26
ATOM     22  C   UNL     1       3.219   0.083   0.000  0.00  0.00    +0.000 A 
ATOM     23  C   UNL     1       3.934  -0.330   0.000  0.00  0.00    +0.000 A 
ATOM     24  C   UNL     1       3.934  -1.155   0.000  0.00  0.00    +0.000 A 
ATOM     25  C   UNL     1       3.219  -1.567   0.000  0.00  0.00    +0.000 A 
ATOM     26  C   UNL     1       2.505  -1.155   0.000  0.00  0.00    +0.000 A 
ATOM     27  C   UNL     1       2.505  -0.330   0.000  0.00  0.00    +0.000 A 
ENDBRANCH  21  26
ENDBRANCH  15  21
ENDBRANCH   1  18
TORSDOF 6
