REMARK  Name = RS7
REMARK  8 active torsions:
REMARK  status: ('A' for Active; 'I' for Inactive)
REMARK    1  A    between atoms: C_1  and  C_4
REMARK    2  A    between atoms: C_5  and  C_6
REMARK    3  A    between atoms: C_11  and  C_12
REMARK    4  A    between atoms: C_13  and  C_14
REMARK    5  A    between atoms: C_14  and  C_15
REMARK    6  A    between atoms: C_15  and  C_16
REMARK    7  A    between atoms: C_16  and  C_17
REMARK    8  A    between atoms: C_17  and  C_18
REMARK                            x       y       z     vdW  Elec       q    Type
REMARK                         _______ _______ _______ _____ _____    ______ ____
ROOT
ATOM      1  C   UNL     1      -3.338  -2.358   0.000  0.00  0.00    +0.000 A 
ATOM      2  C   UNL     1      -4.052  -1.946   0.000  0.00  0.00    +0.000 A 
ATOM      3  C   UNL     1      -4.767  -2.358   0.000  0.00  0.00    +0.000 A 
ATOM      4  C   UNL     1      -4.767  -3.183   0.000  0.00  0.00    +0.000 A 
ATOM      5  C   UNL     1      -4.052  -3.596   0.000  0.00  0.00    +0.000 A 
ATOM      6  C   UNL     1      -3.338  -3.183   0.000  0.00  0.00    +0.000 A 
ENDROOT
BRANCH   1   8
ATOM      7  C   UNL     1      -2.623  -1.121   0.000  0.00  0.00    +0.000 C 
ATOM      8  C   UNL     1      -2.623  -1.946   0.000  0.00  0.00    +0.000 C 
BRANCH   7   9
ATOM      9  C   UNL     1      -1.909  -0.708   0.000  0.00  0.00    +0.000 C 
ATOM     10  O   UNL     1      -1.909   0.117   0.000  0.00  0.00    +0.000 OA
ATOM     11  O   UNL     1      -1.194  -1.121   0.000  0.00  0.00    +0.000 OA
ENDBRANCH   7   9
ENDBRANCH   1   8
BRANCH   6  12
ATOM     12  C   UNL     1      -2.623  -3.596   0.000  0.00  0.00    +0.000 C 
ATOM     13  C   UNL     1      -1.909  -4.008   0.000  0.00  0.00    +0.000 C 
BRANCH  13  14
ATOM     14  C   UNL     1      -1.194  -4.421   0.000  0.00  0.00    +0.000 C 
BRANCH  14  15
ATOM     15  C   UNL     1      -0.480  -4.008   0.000  0.00  0.00    +0.000 C 
BRANCH  15  16
ATOM     16  C   UNL     1       0.235  -4.421   0.000  0.00  0.00    +0.000 C 
BRANCH  16  17
ATOM     17  C   UNL     1       0.949  -4.008   0.000  0.00  0.00    +0.000 C 
BRANCH  17  18
ATOM     18  C   UNL     1       1.663  -4.421   0.000  0.00  0.00    +0.000 C 
ATOM     19  C   UNL     1       2.378  -4.008   0.000  0.00  0.00    +0.000 C 
ENDBRANCH  17  18
ENDBRANCH  16  17
ENDBRANCH  15  16
ENDBRANCH  14  15
ENDBRANCH  13  14
ENDBRANCH   6  12
TORSDOF 8
