REMARK  Name = RSA
REMARK  3 active torsions:
REMARK  status: ('A' for Active; 'I' for Inactive)
REMARK    1  A    between atoms: C_2  and  C_3
REMARK    2  A    between atoms: C_3  and  N_4
REMARK    3  A    between atoms: N_4  and  C_5
REMARK                            x       y       z     vdW  Elec       q    Type
REMARK                         _______ _______ _______ _____ _____    ______ ____
ROOT
ATOM      1  C   UNL     1      -0.134   0.050   0.000  0.00  0.00    +0.000 C 
ATOM      2  C   UNL     1      -0.619  -0.618   0.000  0.00  0.00    +0.000 C 
ATOM      3  C   UNL     1      -0.134  -1.285   0.000  0.00  0.00    +0.000 C 
ATOM      4  C   UNL     1       0.651  -1.030   0.000  0.00  0.00    +0.000 A 
ATOM      5  C   UNL     1       0.651  -0.205   0.000  0.00  0.00    +0.000 A 
ATOM      6  C   UNL     1       1.365   0.207   0.000  0.00  0.00    +0.000 A 
ATOM      7  C   UNL     1       1.365  -1.443   0.000  0.00  0.00    +0.000 A 
ATOM      8  C   UNL     1       2.080  -1.030   0.000  0.00  0.00    +0.000 A 
ATOM      9  C   UNL     1       2.080  -0.205   0.000  0.00  0.00    +0.000 A 
ENDROOT
BRANCH   1  10
ATOM     10  N   UNL     1      -0.389   0.834   0.000  0.00  0.00    +0.000 NA
BRANCH  10  11
ATOM     11  C   UNL     1      -1.196   1.006   0.000  0.00  0.00    +0.000 C 
BRANCH  11  13
ATOM     12  C   UNL     1      -1.706   2.575   0.000  0.00  0.00    +0.000 C 
ATOM     13  C   UNL     1      -1.451   1.790   0.000  0.00  0.00    +0.000 C 
ENDBRANCH  11  13
ENDBRANCH  10  11
ENDBRANCH   1  10
TORSDOF 3
