REMARK  Name = RSS
REMARK  6 active torsions:
REMARK  status: ('A' for Active; 'I' for Inactive)
REMARK    1  A    between atoms: C_1  and  C_4
REMARK    2  A    between atoms: C_4  and  C_5
REMARK    3  A    between atoms: C_5  and  C_6
REMARK    4  A    between atoms: C_5  and  C_20
REMARK    5  A    between atoms: N_8  and  C_9
REMARK    6  A    between atoms: C_20  and  C_21
REMARK                            x       y       z     vdW  Elec       q    Type
REMARK                         _______ _______ _______ _____ _____    ______ ____
ROOT
ATOM      1  C   UNL     1      -1.033   1.270   0.000  0.00  0.00    +0.000 C 
ATOM      2  C   UNL     1      -1.124   2.090   0.000  0.00  0.00    +0.000 C 
ATOM      3  O   UNL     1      -1.738   2.658   0.000  0.00  0.00    +0.000 OA
ATOM      4  N   UNL     1      -0.373   2.430   0.000  0.00  0.00    +0.000 NA
ATOM      5  C   UNL     1       0.183   1.821   0.000  0.00  0.00    +0.000 C 
ATOM      6  C   UNL     1       1.288   1.846   0.000  0.00  0.00    +0.000 C 
ATOM      7  C   UNL     1       1.398   1.056   0.000  0.00  0.00    +0.000 C 
ATOM      8  C   UNL     1       0.936   0.271   0.000  0.00  0.00    +0.000 C 
ATOM      9  C   UNL     1       1.276  -0.481   0.000  0.00  0.00    +0.000 C 
ATOM     10  C   UNL     1       0.795  -1.151   0.000  0.00  0.00    +0.000 C 
ATOM     11  N   UNL     1      -0.026  -1.070   0.000  0.00  0.00    +0.000 N 
ATOM     12  C   UNL     1      -1.527   0.515   0.000  0.00  0.00    +0.000 C 
ATOM     13  C   UNL     1      -1.187  -0.237   0.000  0.00  0.00    +0.000 A 
ATOM     14  C   UNL     1      -0.366  -0.318   0.000  0.00  0.00    +0.000 A 
ATOM     15  C   UNL     1      -1.361  -1.078   0.000  0.00  0.00    +0.000 A 
ATOM     16  C   UNL     1      -0.690  -1.559   0.000  0.00  0.00    +0.000 A 
ATOM     17  C   UNL     1      -2.112  -1.418   0.000  0.00  0.00    +0.000 A 
ATOM     18  C   UNL     1      -0.772  -2.380   0.000  0.00  0.00    +0.000 A 
ATOM     19  C   UNL     1      -2.194  -2.239   0.000  0.00  0.00    +0.000 A 
ATOM     20  C   UNL     1      -1.523  -2.720   0.000  0.00  0.00    +0.000 A 
ENDROOT
BRANCH   1  23
ATOM     21  C   UNL     1       0.137   0.154   0.000  0.00  0.00    +0.000 C 
ATOM     22  O   UNL     1      -0.152   0.795   0.000  0.00  0.00    +0.000 OA
ATOM     23  N   UNL     1      -0.448   0.754   0.000  0.00  0.00    +0.000 NA
BRANCH  21  24
ATOM     24  C   UNL     1       0.835  -0.282   0.000  0.00  0.00    +0.000 C 
BRANCH  24  25
ATOM     25  C   UNL     1       0.414  -1.031   0.000  0.00  0.00    +0.000 C 
BRANCH  25  26
ATOM     26  C   UNL     1       1.042  -1.738   0.000  0.00  0.00    +0.000 C 
ATOM     27  O   UNL     1       0.782  -2.521   0.000  0.00  0.00    +0.000 OA
ATOM     28  O   UNL     1       1.850  -1.571   0.000  0.00  0.00    +0.000 OA
ENDBRANCH  25  26
ENDBRANCH  24  25
BRANCH  24  29
ATOM     29  C   UNL     1       1.686   0.165   0.000  0.00  0.00    +0.000 C 
BRANCH  29  30
ATOM     30  C   UNL     1       1.047   0.754   0.000  0.00  0.00    +0.000 C 
ATOM     31  C   UNL     1       0.448   1.299   0.000  0.00  0.00    +0.000 C 
ATOM     32  C   UNL     1       0.707   1.527   0.000  0.00  0.00    +0.000 C 
ENDBRANCH  29  30
ENDBRANCH  24  29
ENDBRANCH  21  24
ENDBRANCH   1  23
TORSDOF 6
