REMARK  Name = RT3
REMARK  5 active torsions:
REMARK  status: ('A' for Active; 'I' for Inactive)
REMARK    1  A    between atoms: S_2  and  C_5
REMARK    2  A    between atoms: C_11  and  N_12
REMARK    3  A    between atoms: C_13  and  C_15
REMARK    4  A    between atoms: C_15  and  S_16
REMARK    5  A    between atoms: S_16  and  C_17
REMARK                            x       y       z     vdW  Elec       q    Type
REMARK                         _______ _______ _______ _____ _____    ______ ____
ROOT
ATOM      1  C   UNL     1      -1.319  -0.613   0.000  0.00  0.00    +0.000 C 
ENDROOT
BRANCH   1   3
ATOM      2  N   UNL     1      -2.748  -0.613   0.000  0.00  0.00    +0.000 NA
ATOM      3  C   UNL     1      -2.033  -0.201   0.000  0.00  0.00    +0.000 C 
ATOM      4  O   UNL     1      -2.033   0.624   0.000  0.00  0.00    +0.000 OA
BRANCH   2  11
ATOM      5  C   UNL     1      -4.891   0.624   0.000  0.00  0.00    +0.000 A 
ATOM      6  C   UNL     1      -4.177   1.037   0.000  0.00  0.00    +0.000 A 
ATOM      7  C   UNL     1      -3.462   0.624   0.000  0.00  0.00    +0.000 A 
ATOM      8 CL   UNL     1      -2.748   1.037   0.000  0.00  0.00    +0.000 Cl
ATOM      9  C   UNL     1      -4.891  -0.201   0.000  0.00  0.00    +0.000 A 
ATOM     10  C   UNL     1      -4.177  -0.613   0.000  0.00  0.00    +0.000 A 
ATOM     11  C   UNL     1      -3.462  -0.201   0.000  0.00  0.00    +0.000 A 
BRANCH   5  13
ATOM     12  O   UNL     1      -6.320   1.449   0.000  0.00  0.00    +0.000 OA
ATOM     13  S   UNL     1      -5.606   1.037   0.000  0.00  0.00    +0.000 S 
ATOM     14  O   UNL     1      -6.018   0.322   0.000  0.00  0.00    +0.000 OA
ATOM     15  N   UNL     1      -5.193   1.751   0.000  0.00  0.00    +0.000 NA
ENDBRANCH   5  13
ENDBRANCH   2  11
ENDBRANCH   1   3
BRANCH   1  16
ATOM     16  S   UNL     1      -0.604  -0.201   0.000  0.00  0.00    +0.000 S 
BRANCH  16  17
ATOM     17  C   UNL     1       0.110  -0.613   0.000  0.00  0.00    +0.000 C 
ATOM     18  O   UNL     1       0.110  -1.438   0.000  0.00  0.00    +0.000 OA
ATOM     19  N   UNL     1       0.825  -0.201   0.000  0.00  0.00    +0.000 N 
ATOM     20  C   UNL     1       0.825   0.624   0.000  0.00  0.00    +0.000 C 
ATOM     21  C   UNL     1       1.539  -0.613   0.000  0.00  0.00    +0.000 A 
ATOM     22  C   UNL     1       1.539  -1.438   0.000  0.00  0.00    +0.000 A 
ATOM     23  C   UNL     1       2.253  -0.201   0.000  0.00  0.00    +0.000 A 
ATOM     24  C   UNL     1       2.253   0.624   0.000  0.00  0.00    +0.000 C 
ATOM     25  C   UNL     1       1.539   1.037   0.000  0.00  0.00    +0.000 C 
ATOM     26  C   UNL     1       2.968  -0.613   0.000  0.00  0.00    +0.000 A 
ATOM     27  C   UNL     1       2.968  -1.438   0.000  0.00  0.00    +0.000 A 
ATOM     28  C   UNL     1       3.682  -1.851   0.000  0.00  0.00    +0.000 C 
ATOM     29  C   UNL     1       2.253  -1.851   0.000  0.00  0.00    +0.000 A 
ENDBRANCH  16  17
ENDBRANCH   1  16
TORSDOF 5
