REMARK  Name = RTR
REMARK  5 active torsions:
REMARK  status: ('A' for Active; 'I' for Inactive)
REMARK    1  A    between atoms: C_2  and  C_4
REMARK    2  A    between atoms: C_7  and  C_10
REMARK    3  A    between atoms: C_10  and  N_11
REMARK    4  A    between atoms: N_15  and  S_18
REMARK    5  A    between atoms: S_18  and  C_21
REMARK                            x       y       z     vdW  Elec       q    Type
REMARK                         _______ _______ _______ _____ _____    ______ ____
ROOT
ATOM      1  N   UNL     1      -1.171   0.714   0.000  0.00  0.00    +0.000 N 
ATOM      2  C   UNL     1      -0.758   1.429   0.000  0.00  0.00    +0.000 C 
ATOM      3  O   UNL     1      -1.171   2.143   0.000  0.00  0.00    +0.000 OA
ATOM      4  C   UNL     1       0.067   1.429   0.000  0.00  0.00    +0.000 C 
ATOM      5  N   UNL     1       0.479   0.714   0.000  0.00  0.00    +0.000 NA
ATOM      6  C   UNL     1       0.067  -0.000   0.000  0.00  0.00    +0.000 C 
ATOM      7  C   UNL     1      -0.758  -0.000   0.000  0.00  0.00    +0.000 C 
ENDROOT
BRANCH   5   8
ATOM      8  S   UNL     1       1.304   0.714   0.000  0.00  0.00    +0.000 S 
ATOM      9  O   UNL     1       1.304  -0.111   0.000  0.00  0.00    +0.000 OA
ATOM     10  O   UNL     1       1.304   1.539   0.000  0.00  0.00    +0.000 OA
BRANCH   8  11
ATOM     11  C   UNL     1       2.129   0.714   0.000  0.00  0.00    +0.000 A 
ATOM     12  C   UNL     1       2.614   0.047   0.000  0.00  0.00    +0.000 A 
ATOM     13  C   UNL     1       3.399   0.302   0.000  0.00  0.00    +0.000 A 
ATOM     14  C   UNL     1       3.399   1.127   0.000  0.00  0.00    +0.000 A 
ATOM     15  S   UNL     1       2.614   1.381   0.000  0.00  0.00    +0.000 S 
ATOM     16  C   UNL     1       4.113   1.539   0.000  0.00  0.00    +0.000 A 
ATOM     17  C   UNL     1       4.828   1.127   0.000  0.00  0.00    +0.000 A 
ATOM     18 CL   UNL     1       5.542   1.539   0.000  0.00  0.00    +0.000 Cl
ATOM     19  C   UNL     1       4.828   0.302   0.000  0.00  0.00    +0.000 A 
ATOM     20  C   UNL     1       4.113  -0.111   0.000  0.00  0.00    +0.000 A 
ENDBRANCH   8  11
ENDBRANCH   5   8
BRANCH   1  21
ATOM     21  C   UNL     1      -1.996   0.714   0.000  0.00  0.00    +0.000 C 
BRANCH  21  25
ATOM     22  C   UNL     1      -3.233  -1.429   0.000  0.00  0.00    +0.000 A 
ATOM     23  C   UNL     1      -3.646  -0.715   0.000  0.00  0.00    +0.000 A 
ATOM     24  C   UNL     1      -3.233  -0.000   0.000  0.00  0.00    +0.000 A 
ATOM     25  C   UNL     1      -2.408  -0.000   0.000  0.00  0.00    +0.000 A 
ATOM     26  C   UNL     1      -1.996  -0.715   0.000  0.00  0.00    +0.000 A 
ATOM     27  C   UNL     1      -2.408  -1.429   0.000  0.00  0.00    +0.000 A 
BRANCH  22  29
ATOM     28  N   UNL     1      -3.233  -2.858   0.000  0.00  0.00    +0.000 NA
ATOM     29  C   UNL     1      -3.646  -2.144   0.000  0.00  0.00    +0.000 C 
ATOM     30  N   UNL     1      -4.471  -2.144   0.000  0.00  0.00    +0.000 NA
ENDBRANCH  22  29
ENDBRANCH  21  25
ENDBRANCH   1  21
TORSDOF 5
