REMARK  Name = RXB
REMARK  5 active torsions:
REMARK  status: ('A' for Active; 'I' for Inactive)
REMARK    1  A    between atoms: C_13  and  N_14
REMARK    2  A    between atoms: C_15  and  C_17
REMARK    3  A    between atoms: C_17  and  O_18
REMARK    4  A    between atoms: C_17  and  C_22
REMARK    5  A    between atoms: O_18  and  C_19
REMARK                            x       y       z     vdW  Elec       q    Type
REMARK                         _______ _______ _______ _____ _____    ______ ____
ROOT
ATOM      1  N   UNL     1       0.231   0.224   0.000  0.00  0.00    +0.000 NA
ATOM      2  C   UNL     1       0.231  -0.601   0.000  0.00  0.00    +0.000 C 
ATOM      3  O   UNL     1      -0.483  -1.013   0.000  0.00  0.00    +0.000 OA
ENDROOT
BRANCH   1  16
ATOM      4  O   UNL     1      -1.912   3.112   0.000  0.00  0.00    +0.000 OA
ATOM      5  C   UNL     1      -1.198   2.699   0.000  0.00  0.00    +0.000 C 
ATOM      6  N   UNL     1      -0.483   3.112   0.000  0.00  0.00    +0.000 NA
ATOM      7  C   UNL     1       0.231   2.699   0.000  0.00  0.00    +0.000 C 
ATOM      8  O   UNL     1       0.946   3.112   0.000  0.00  0.00    +0.000 OA
ATOM      9  C   UNL     1      -1.198   1.874   0.000  0.00  0.00    +0.000 A 
ATOM     10  C   UNL     1      -0.483   1.462   0.000  0.00  0.00    +0.000 A 
ATOM     11  C   UNL     1       0.231   1.874   0.000  0.00  0.00    +0.000 C 
ATOM     12  O   UNL     1       0.946   1.462   0.000  0.00  0.00    +0.000 OA
ATOM     13  C   UNL     1      -1.912   1.462   0.000  0.00  0.00    +0.000 A 
ATOM     14  C   UNL     1      -1.912   0.637   0.000  0.00  0.00    +0.000 A 
ATOM     15  C   UNL     1      -1.198   0.224   0.000  0.00  0.00    +0.000 A 
ATOM     16  C   UNL     1      -0.483   0.637   0.000  0.00  0.00    +0.000 A 
ENDBRANCH   1  16
BRANCH   2  17
ATOM     17  C   UNL     1       0.946  -1.013   0.000  0.00  0.00    +0.000 C 
BRANCH  17  18
ATOM     18  C   UNL     1       0.946  -1.838   0.000  0.00  0.00    +0.000 A 
ATOM     19  C   UNL     1       1.660  -2.251   0.000  0.00  0.00    +0.000 A 
ATOM     20  C   UNL     1       1.660  -3.076   0.000  0.00  0.00    +0.000 A 
ATOM     21  C   UNL     1       0.946  -3.488   0.000  0.00  0.00    +0.000 A 
ATOM     22  C   UNL     1       0.231  -3.076   0.000  0.00  0.00    +0.000 A 
ATOM     23  C   UNL     1       0.231  -2.251   0.000  0.00  0.00    +0.000 A 
ENDBRANCH  17  18
BRANCH  17  24
ATOM     24  O   UNL     1       1.660  -0.601   0.000  0.00  0.00    +0.000 OA
BRANCH  24  25
ATOM     25  C   UNL     1       1.660   0.224   0.000  0.00  0.00    +0.000 C 
ATOM     26  O   UNL     1       0.946   0.637   0.000  0.00  0.00    +0.000 OA
ATOM     27  C   UNL     1       2.375   0.637   0.000  0.00  0.00    +0.000 C 
ENDBRANCH  24  25
ENDBRANCH  17  24
ENDBRANCH   2  17
TORSDOF 5
