REMARK  Name = RXC
REMARK  5 active torsions:
REMARK  status: ('A' for Active; 'I' for Inactive)
REMARK    1  A    between atoms: C_13  and  N_14
REMARK    2  A    between atoms: C_15  and  C_17
REMARK    3  A    between atoms: C_17  and  O_18
REMARK    4  A    between atoms: C_17  and  C_22
REMARK    5  A    between atoms: O_18  and  C_19
REMARK                            x       y       z     vdW  Elec       q    Type
REMARK                         _______ _______ _______ _____ _____    ______ ____
ROOT
ATOM      1  N   UNL     1      -0.017   0.110   0.000  0.00  0.00    +0.000 NA
ATOM      2  C   UNL     1      -0.017  -0.715   0.000  0.00  0.00    +0.000 C 
ATOM      3  O   UNL     1      -0.732  -1.127   0.000  0.00  0.00    +0.000 OA
ENDROOT
BRANCH   1  16
ATOM      4  O   UNL     1      -2.161   2.998   0.000  0.00  0.00    +0.000 OA
ATOM      5  C   UNL     1      -1.446   2.585   0.000  0.00  0.00    +0.000 C 
ATOM      6  N   UNL     1      -0.732   2.998   0.000  0.00  0.00    +0.000 NA
ATOM      7  C   UNL     1      -0.017   2.585   0.000  0.00  0.00    +0.000 C 
ATOM      8  O   UNL     1       0.697   2.998   0.000  0.00  0.00    +0.000 OA
ATOM      9  C   UNL     1      -1.446   1.760   0.000  0.00  0.00    +0.000 A 
ATOM     10  C   UNL     1      -0.732   1.348   0.000  0.00  0.00    +0.000 A 
ATOM     11  C   UNL     1      -0.017   1.760   0.000  0.00  0.00    +0.000 C 
ATOM     12  O   UNL     1       0.697   1.348   0.000  0.00  0.00    +0.000 OA
ATOM     13  C   UNL     1      -2.161   1.348   0.000  0.00  0.00    +0.000 A 
ATOM     14  C   UNL     1      -2.161   0.523   0.000  0.00  0.00    +0.000 A 
ATOM     15  C   UNL     1      -1.446   0.110   0.000  0.00  0.00    +0.000 A 
ATOM     16  C   UNL     1      -0.732   0.523   0.000  0.00  0.00    +0.000 A 
ENDBRANCH   1  16
BRANCH   2  17
ATOM     17  C   UNL     1       0.697  -1.127   0.000  0.00  0.00    +0.000 C 
BRANCH  17  18
ATOM     18  C   UNL     1       0.697  -1.952   0.000  0.00  0.00    +0.000 A 
ATOM     19  C   UNL     1       1.412  -2.365   0.000  0.00  0.00    +0.000 A 
ATOM     20  C   UNL     1       1.412  -3.190   0.000  0.00  0.00    +0.000 A 
ATOM     21  C   UNL     1       0.697  -3.602   0.000  0.00  0.00    +0.000 A 
ATOM     22  C   UNL     1      -0.017  -3.190   0.000  0.00  0.00    +0.000 A 
ATOM     23 CL   UNL     1      -0.732  -3.602   0.000  0.00  0.00    +0.000 Cl
ATOM     24  C   UNL     1      -0.017  -2.365   0.000  0.00  0.00    +0.000 A 
ENDBRANCH  17  18
BRANCH  17  25
ATOM     25  O   UNL     1       1.412  -0.715   0.000  0.00  0.00    +0.000 OA
BRANCH  25  26
ATOM     26  C   UNL     1       1.412   0.110   0.000  0.00  0.00    +0.000 C 
ATOM     27  O   UNL     1       0.697   0.523   0.000  0.00  0.00    +0.000 OA
ATOM     28  C   UNL     1       2.126   0.523   0.000  0.00  0.00    +0.000 C 
ENDBRANCH  25  26
ENDBRANCH  17  25
ENDBRANCH   2  17
TORSDOF 5
