REMARK  Name = RXD
REMARK  8 active torsions:
REMARK  status: ('A' for Active; 'I' for Inactive)
REMARK    1  A    between atoms: C_2  and  C_3
REMARK    2  A    between atoms: C_3  and  O_4
REMARK    3  A    between atoms: O_4  and  C_5
REMARK    4  A    between atoms: C_10  and  N_11
REMARK    5  A    between atoms: C_12  and  C_14
REMARK    6  A    between atoms: C_14  and  C_15
REMARK    7  A    between atoms: C_15  and  C_16
REMARK    8  A    between atoms: N_18  and  C_19
REMARK                            x       y       z     vdW  Elec       q    Type
REMARK                         _______ _______ _______ _____ _____    ______ ____
ROOT
ATOM      1  C   UNL     1       1.558   0.498   0.000  0.00  0.00    +0.000 C 
ATOM      2  O   UNL     1       1.558   1.323   0.000  0.00  0.00    +0.000 OA
ATOM      3  N   UNL     1       2.273   0.086   0.000  0.00  0.00    +0.000 NA
ENDROOT
BRANCH   3   4
ATOM      4  C   UNL     1       2.987   0.498   0.000  0.00  0.00    +0.000 A 
ATOM      5  C   UNL     1       3.702   0.086   0.000  0.00  0.00    +0.000 A 
ATOM      6  C   UNL     1       4.416   0.498   0.000  0.00  0.00    +0.000 A 
ATOM      7  C   UNL     1       4.416   1.323   0.000  0.00  0.00    +0.000 A 
ATOM      8  C   UNL     1       3.702   1.736   0.000  0.00  0.00    +0.000 A 
ATOM      9  C   UNL     1       3.702   2.561   0.000  0.00  0.00    +0.000 C 
ATOM     10  O   UNL     1       2.987   2.974   0.000  0.00  0.00    +0.000 OA
ATOM     11  C   UNL     1       2.987   1.323   0.000  0.00  0.00    +0.000 A 
ATOM     12  C   UNL     1       5.131   1.736   0.000  0.00  0.00    +0.000 C 
ATOM     13  O   UNL     1       5.845   1.323   0.000  0.00  0.00    +0.000 OA
ATOM     14  N   UNL     1       5.131   2.561   0.000  0.00  0.00    +0.000 NA
ATOM     15  C   UNL     1       4.416   2.974   0.000  0.00  0.00    +0.000 C 
ATOM     16  O   UNL     1       4.416   3.799   0.000  0.00  0.00    +0.000 OA
ENDBRANCH   3   4
BRANCH   1  17
ATOM     17  C   UNL     1       0.844   0.086   0.000  0.00  0.00    +0.000 C 
BRANCH  17  18
ATOM     18  C   UNL     1       0.130   0.498   0.000  0.00  0.00    +0.000 C 
BRANCH  18  20
ATOM     19  N   UNL     1      -1.299   0.498   0.000  0.00  0.00    +0.000 NA
ATOM     20  C   UNL     1      -0.585   0.086   0.000  0.00  0.00    +0.000 C 
ATOM     21  O   UNL     1      -0.585  -0.739   0.000  0.00  0.00    +0.000 OA
BRANCH  19  27
ATOM     22  C   UNL     1      -2.728  -1.151   0.000  0.00  0.00    +0.000 A 
ATOM     23  C   UNL     1      -3.443  -0.739   0.000  0.00  0.00    +0.000 A 
ATOM     24  C   UNL     1      -3.443   0.086   0.000  0.00  0.00    +0.000 A 
ATOM     25  C   UNL     1      -2.728   0.498   0.000  0.00  0.00    +0.000 A 
ATOM     26  C   UNL     1      -2.014  -0.739   0.000  0.00  0.00    +0.000 A 
ATOM     27  C   UNL     1      -2.014   0.086   0.000  0.00  0.00    +0.000 A 
BRANCH  22  28
ATOM     28  O   UNL     1      -2.728  -1.976   0.000  0.00  0.00    +0.000 OA
BRANCH  28  29
ATOM     29  C   UNL     1      -3.443  -2.389   0.000  0.00  0.00    +0.000 C 
BRANCH  29  31
ATOM     30  F   UNL     1      -4.157  -3.627   0.000  0.00  0.00    +0.000 F 
ATOM     31  C   UNL     1      -3.443  -3.214   0.000  0.00  0.00    +0.000 C 
ENDBRANCH  29  31
ENDBRANCH  28  29
ENDBRANCH  22  28
ENDBRANCH  19  27
ENDBRANCH  18  20
ENDBRANCH  17  18
ENDBRANCH   1  17
TORSDOF 8
