REMARK  Name = S06
REMARK  2 active torsions:
REMARK  status: ('A' for Active; 'I' for Inactive)
REMARK    1  A    between atoms: C_10  and  C_11
REMARK    2  A    between atoms: C_17  and  C_18
REMARK                            x       y       z     vdW  Elec       q    Type
REMARK                         _______ _______ _______ _____ _____    ______ ____
ROOT
ATOM      1  C   UNL     1      -0.417   0.186   0.000  0.00  0.00    +0.000 C 
ATOM      2  C   UNL     1       0.367  -0.069   0.000  0.00  0.00    +0.000 C 
ATOM      3  N   UNL     1      -0.417   1.011   0.000  0.00  0.00    +0.000 NA
ATOM      4  O   UNL     1       0.367   1.266   0.000  0.00  0.00    +0.000 OA
ATOM      5  C   UNL     1       0.852   0.599   0.000  0.00  0.00    +0.000 C 
ATOM      6  O   UNL     1       1.265   1.313   0.000  0.00  0.00    +0.000 OA
ATOM      7  C   UNL     1       2.090   1.313   0.000  0.00  0.00    +0.000 C 
ATOM      8  C   UNL     1       2.502   0.599   0.000  0.00  0.00    +0.000 C 
ATOM      9  O   UNL     1       3.327   0.599   0.000  0.00  0.00    +0.000 OA
ATOM     10  C   UNL     1       2.090  -0.116   0.000  0.00  0.00    +0.000 C 
ATOM     11  O   UNL     1       2.502  -0.830   0.000  0.00  0.00    +0.000 OA
ATOM     12  C   UNL     1       1.265  -0.116   0.000  0.00  0.00    +0.000 C 
ATOM     13  O   UNL     1       0.852  -0.830   0.000  0.00  0.00    +0.000 OA
ENDROOT
BRANCH   1  23
ATOM     14  C   UNL     1      -1.838   0.037   0.000  0.00  0.00    +0.000 A 
ATOM     15  C   UNL     1      -2.506  -0.448   0.000  0.00  0.00    +0.000 A 
ATOM     16  C   UNL     1      -3.259  -0.112   0.000  0.00  0.00    +0.000 A 
ATOM     17  C   UNL     1      -3.927  -0.597   0.000  0.00  0.00    +0.000 A 
ATOM     18  C   UNL     1      -3.841  -1.418   0.000  0.00  0.00    +0.000 A 
ATOM     19  C   UNL     1      -3.087  -1.753   0.000  0.00  0.00    +0.000 A 
ATOM     20  C   UNL     1      -2.419  -1.268   0.000  0.00  0.00    +0.000 A 
ATOM     21  C   UNL     1      -1.666  -1.604   0.000  0.00  0.00    +0.000 A 
ATOM     22  C   UNL     1      -0.998  -1.119   0.000  0.00  0.00    +0.000 A 
ATOM     23  C   UNL     1      -1.085  -0.299   0.000  0.00  0.00    +0.000 A 
ENDBRANCH   1  23
BRANCH   7  24
ATOM     24  C   UNL     1       2.502   2.028   0.000  0.00  0.00    +0.000 C 
ATOM     25  O   UNL     1       2.090   2.742   0.000  0.00  0.00    +0.000 OA
ENDBRANCH   7  24
TORSDOF 2
