REMARK  Name = S10
REMARK  8 active torsions:
REMARK  status: ('A' for Active; 'I' for Inactive)
REMARK    1  A    between atoms: C_2  and  O_3
REMARK    2  A    between atoms: O_3  and  C_4
REMARK    3  A    between atoms: N_6  and  C_7
REMARK    4  A    between atoms: C_7  and  C_8
REMARK    5  A    between atoms: C_8  and  C_9
REMARK    6  A    between atoms: C_9  and  N_10
REMARK    7  A    between atoms: C_11  and  O_13
REMARK    8  A    between atoms: O_13  and  C_14
REMARK                            x       y       z     vdW  Elec       q    Type
REMARK                         _______ _______ _______ _____ _____    ______ ____
ROOT
ATOM      1  C   UNL     1       0.000   0.381   0.000  0.00  0.00    +0.000 C 
ENDROOT
BRANCH   1   2
ATOM      2  C   UNL     1      -0.715  -0.031   0.000  0.00  0.00    +0.000 C 
BRANCH   2   5
ATOM      3  O   UNL     1      -2.143  -0.856   0.000  0.00  0.00    +0.000 OA
ATOM      4  C   UNL     1      -2.143  -0.031   0.000  0.00  0.00    +0.000 C 
ATOM      5  N   UNL     1      -1.429   0.381   0.000  0.00  0.00    +0.000 NA
BRANCH   4   6
ATOM      6  O   UNL     1      -2.858   0.381   0.000  0.00  0.00    +0.000 OA
BRANCH   6   7
ATOM      7  C   UNL     1      -3.572  -0.031   0.000  0.00  0.00    +0.000 C 
ATOM      8  C   UNL     1      -4.287   0.381   0.000  0.00  0.00    +0.000 C 
ENDBRANCH   6   7
ENDBRANCH   4   6
ENDBRANCH   2   5
ENDBRANCH   1   2
BRANCH   1   9
ATOM      9  C   UNL     1       0.715  -0.031   0.000  0.00  0.00    +0.000 C 
BRANCH   9  10
ATOM     10  N   UNL     1       1.429   0.381   0.000  0.00  0.00    +0.000 NA
ATOM     11  C   UNL     1       2.143  -0.031   0.000  0.00  0.00    +0.000 C 
ATOM     12  O   UNL     1       2.143  -0.856   0.000  0.00  0.00    +0.000 OA
BRANCH  11  13
ATOM     13  O   UNL     1       2.858   0.381   0.000  0.00  0.00    +0.000 OA
BRANCH  13  14
ATOM     14  C   UNL     1       3.572  -0.031   0.000  0.00  0.00    +0.000 C 
ATOM     15  C   UNL     1       4.287   0.381   0.000  0.00  0.00    +0.000 C 
ENDBRANCH  13  14
ENDBRANCH  11  13
ENDBRANCH   9  10
ENDBRANCH   1   9
TORSDOF 8
