REMARK  Name = S11
REMARK  8 active torsions:
REMARK  status: ('A' for Active; 'I' for Inactive)
REMARK    1  A    between atoms: C_2  and  C_15
REMARK    2  A    between atoms: C_3  and  S_7
REMARK    3  A    between atoms: N_4  and  C_18
REMARK    4  A    between atoms: C_5  and  C_25
REMARK    5  A    between atoms: C_6  and  S_7
REMARK    6  A    between atoms: C_18  and  C_19
REMARK    7  A    between atoms: C_25  and  O_26
REMARK    8  A    between atoms: O_26  and  C_27
REMARK                            x       y       z     vdW  Elec       q    Type
REMARK                         _______ _______ _______ _____ _____    ______ ____
ROOT
ATOM      1  N   UNL     1       1.666  -0.058   0.000  0.00  0.00    +0.000 NA
ATOM      2  C   UNL     1       1.411  -0.843   0.000  0.00  0.00    +0.000 A 
ATOM      3  C   UNL     1       0.586  -0.843   0.000  0.00  0.00    +0.000 A 
ATOM      4  N   UNL     1       0.331  -0.058   0.000  0.00  0.00    +0.000 N 
ATOM      5  C   UNL     1       0.999   0.427   0.000  0.00  0.00    +0.000 A 
ENDROOT
BRANCH   2   6
ATOM      6  C   UNL     1       1.896  -1.510   0.000  0.00  0.00    +0.000 C 
ATOM      7  C   UNL     1       1.561  -2.264   0.000  0.00  0.00    +0.000 C 
ATOM      8  C   UNL     1       2.717  -1.424   0.000  0.00  0.00    +0.000 C 
ENDBRANCH   2   6
BRANCH   3   9
ATOM      9  S   UNL     1       0.101  -1.510   0.000  0.00  0.00    +0.000 S 
BRANCH   9  10
ATOM     10  C   UNL     1      -0.719  -1.424   0.000  0.00  0.00    +0.000 A 
ATOM     11  C   UNL     1      -1.204  -2.091   0.000  0.00  0.00    +0.000 A 
ATOM     12  C   UNL     1      -2.025  -2.005   0.000  0.00  0.00    +0.000 A 
ATOM     13 CL   UNL     1      -2.509  -2.673   0.000  0.00  0.00    +0.000 Cl
ATOM     14  C   UNL     1      -2.360  -1.252   0.000  0.00  0.00    +0.000 A 
ATOM     15  C   UNL     1      -1.875  -0.584   0.000  0.00  0.00    +0.000 A 
ATOM     16 CL   UNL     1      -2.211   0.170   0.000  0.00  0.00    +0.000 Cl
ATOM     17  C   UNL     1      -1.055  -0.670   0.000  0.00  0.00    +0.000 A 
ENDBRANCH   9  10
ENDBRANCH   3   9
BRANCH   5  18
ATOM     18  C   UNL     1       0.999   1.252   0.000  0.00  0.00    +0.000 C 
BRANCH  18  19
ATOM     19  O   UNL     1       1.713   1.664   0.000  0.00  0.00    +0.000 OA
BRANCH  19  20
ATOM     20  C   UNL     1       1.713   2.489   0.000  0.00  0.00    +0.000 C 
ATOM     21  N   UNL     1       0.999   2.902   0.000  0.00  0.00    +0.000 NA
ATOM     22  O   UNL     1       2.428   2.902   0.000  0.00  0.00    +0.000 OA
ENDBRANCH  19  20
ENDBRANCH  18  19
ENDBRANCH   5  18
BRANCH   4  23
ATOM     23  C   UNL     1      -0.453   0.197   0.000  0.00  0.00    +0.000 C 
BRANCH  23  24
ATOM     24  C   UNL     1      -0.625   1.004   0.000  0.00  0.00    +0.000 A 
ATOM     25  C   UNL     1      -1.409   1.259   0.000  0.00  0.00    +0.000 A 
ATOM     26  C   UNL     1      -1.581   2.066   0.000  0.00  0.00    +0.000 A 
ATOM     27  N   UNL     1      -0.968   2.618   0.000  0.00  0.00    +0.000 NA
ATOM     28  C   UNL     1      -0.183   2.363   0.000  0.00  0.00    +0.000 A 
ATOM     29  C   UNL     1      -0.012   1.556   0.000  0.00  0.00    +0.000 A 
ENDBRANCH  23  24
ENDBRANCH   4  23
TORSDOF 8
