REMARK  Name = S13
REMARK  2 active torsions:
REMARK  status: ('A' for Active; 'I' for Inactive)
REMARK    1  A    between atoms: C_7  and  C_8
REMARK    2  A    between atoms: C_14  and  C_15
REMARK                            x       y       z     vdW  Elec       q    Type
REMARK                         _______ _______ _______ _____ _____    ______ ____
ROOT
ATOM      1  C   UNL     1      -0.599   0.166   0.000  0.00  0.00    +0.000 C 
ATOM      2  C   UNL     1       0.185  -0.089   0.000  0.00  0.00    +0.000 C 
ATOM      3  N   UNL     1      -0.599   0.991   0.000  0.00  0.00    +0.000 NA
ATOM      4  O   UNL     1       0.185   1.246   0.000  0.00  0.00    +0.000 OA
ATOM      5  C   UNL     1       0.670   0.579   0.000  0.00  0.00    +0.000 C 
ATOM      6  O   UNL     1       1.083   1.293   0.000  0.00  0.00    +0.000 OA
ATOM      7  C   UNL     1       1.908   1.293   0.000  0.00  0.00    +0.000 C 
ATOM      8  C   UNL     1       2.320   0.579   0.000  0.00  0.00    +0.000 C 
ATOM      9  O   UNL     1       3.145   0.579   0.000  0.00  0.00    +0.000 OA
ATOM     10  C   UNL     1       1.908  -0.136   0.000  0.00  0.00    +0.000 C 
ATOM     11  O   UNL     1       2.320  -0.851   0.000  0.00  0.00    +0.000 OA
ATOM     12  C   UNL     1       1.083  -0.136   0.000  0.00  0.00    +0.000 C 
ATOM     13  O   UNL     1       0.670  -0.851   0.000  0.00  0.00    +0.000 OA
ENDROOT
BRANCH   1  20
ATOM     14  C   UNL     1      -2.020   0.017   0.000  0.00  0.00    +0.000 A 
ATOM     15  C   UNL     1      -2.688  -0.468   0.000  0.00  0.00    +0.000 A 
ATOM     16  C   UNL     1      -2.602  -1.289   0.000  0.00  0.00    +0.000 A 
ATOM     17  C   UNL     1      -3.269  -1.774   0.000  0.00  0.00    +0.000 C 
ATOM     18  C   UNL     1      -1.848  -1.624   0.000  0.00  0.00    +0.000 A 
ATOM     19  C   UNL     1      -1.181  -1.139   0.000  0.00  0.00    +0.000 A 
ATOM     20  C   UNL     1      -1.267  -0.319   0.000  0.00  0.00    +0.000 A 
ENDBRANCH   1  20
BRANCH   7  21
ATOM     21  C   UNL     1       2.320   2.007   0.000  0.00  0.00    +0.000 C 
ATOM     22  O   UNL     1       1.908   2.722   0.000  0.00  0.00    +0.000 OA
ENDBRANCH   7  21
TORSDOF 2
