REMARK  Name = S14
REMARK  5 active torsions:
REMARK  status: ('A' for Active; 'I' for Inactive)
REMARK    1  A    between atoms: C_4  and  C_10
REMARK    2  A    between atoms: C_13  and  C_16
REMARK    3  A    between atoms: C_16  and  C_17
REMARK    4  A    between atoms: C_16  and  C_20
REMARK    5  A    between atoms: C_17  and  C_18
REMARK                            x       y       z     vdW  Elec       q    Type
REMARK                         _______ _______ _______ _____ _____    ______ ____
ROOT
ATOM      1  C   UNL     1      -0.337  -0.865   0.000  0.00  0.00    +0.000 C 
ENDROOT
BRANCH   1   5
ATOM      2  C   UNL     1       0.901   1.279   0.000  0.00  0.00    +0.000 A 
ATOM      3  C   UNL     1       1.313   0.564   0.000  0.00  0.00    +0.000 A 
ATOM      4  C   UNL     1       0.901  -0.150   0.000  0.00  0.00    +0.000 A 
ATOM      5  C   UNL     1       0.076  -0.150   0.000  0.00  0.00    +0.000 A 
ATOM      6  C   UNL     1      -0.337   0.564   0.000  0.00  0.00    +0.000 A 
ATOM      7  C   UNL     1       0.076   1.279   0.000  0.00  0.00    +0.000 A 
BRANCH   2  11
ATOM      8  C   UNL     1       2.139   3.422   0.000  0.00  0.00    +0.000 A 
ATOM      9  C   UNL     1       2.551   2.708   0.000  0.00  0.00    +0.000 A 
ATOM     10  C   UNL     1       2.139   1.993   0.000  0.00  0.00    +0.000 A 
ATOM     11  C   UNL     1       1.313   1.993   0.000  0.00  0.00    +0.000 A 
ATOM     12  C   UNL     1       0.901   2.708   0.000  0.00  0.00    +0.000 A 
ATOM     13  N   UNL     1       1.313   3.422   0.000  0.00  0.00    +0.000 N 
ATOM     14  N   UNL     1       1.059   4.207   0.000  0.00  0.00    +0.000 NA
ATOM     15  C   UNL     1       1.726   4.692   0.000  0.00  0.00    +0.000 A 
ATOM     16  N   UNL     1       2.393   4.207   0.000  0.00  0.00    +0.000 NA
ENDBRANCH   2  11
ENDBRANCH   1   5
BRANCH   1  17
ATOM     17  C   UNL     1       0.076  -1.579   0.000  0.00  0.00    +0.000 C 
ATOM     18  O   UNL     1      -0.337  -2.294   0.000  0.00  0.00    +0.000 OA
ATOM     19  N   UNL     1       0.901  -1.579   0.000  0.00  0.00    +0.000 N 
ATOM     20  C   UNL     1       1.313  -0.865   0.000  0.00  0.00    +0.000 C 
ATOM     21  C   UNL     1       1.313  -2.294   0.000  0.00  0.00    +0.000 C 
ENDBRANCH   1  17
BRANCH   1  22
ATOM     22  C   UNL     1      -1.161  -0.865   0.000  0.00  0.00    +0.000 C 
ATOM     23  N   UNL     1      -1.574  -0.150   0.000  0.00  0.00    +0.000 NA
BRANCH  22  24
ATOM     24  C   UNL     1      -1.574  -1.579   0.000  0.00  0.00    +0.000 C 
ATOM     25  N   UNL     1      -2.399  -1.579   0.000  0.00  0.00    +0.000 N 
ATOM     26  O   UNL     1      -1.161  -2.294   0.000  0.00  0.00    +0.000 OA
ATOM     27  C   UNL     1      -2.884  -2.247   0.000  0.00  0.00    +0.000 C 
ATOM     28  C   UNL     1      -3.668  -1.992   0.000  0.00  0.00    +0.000 C 
ATOM     29  C   UNL     1      -3.668  -1.167   0.000  0.00  0.00    +0.000 C 
ATOM     30  C   UNL     1      -2.884  -0.912   0.000  0.00  0.00    +0.000 C 
ATOM     31  F   UNL     1      -4.336  -2.477   0.000  0.00  0.00    +0.000 F 
ENDBRANCH  22  24
ENDBRANCH   1  22
TORSDOF 5
