REMARK  Name = S17
REMARK  12 active torsions:
REMARK  status: ('A' for Active; 'I' for Inactive)
REMARK    1  A    between atoms: C_7  and  C_8
REMARK    2  A    between atoms: C_8  and  C_9
REMARK    3  A    between atoms: C_9  and  C_10
REMARK    4  A    between atoms: C_9  and  N_14
REMARK    5  A    between atoms: C_10  and  O_12
REMARK    6  A    between atoms: C_15  and  C_17
REMARK    7  A    between atoms: C_17  and  C_18
REMARK    8  A    between atoms: C_18  and  C_19
REMARK    9  A    between atoms: C_19  and  C_20
REMARK   10  A    between atoms: C_20  and  C_21
REMARK   11  A    between atoms: C_21  and  C_22
REMARK   12  A    between atoms: C_22  and  C_23
REMARK                            x       y       z     vdW  Elec       q    Type
REMARK                         _______ _______ _______ _____ _____    ______ ____
ROOT
ATOM      1  C   UNL     1      -4.676  -4.226   0.000  0.00  0.00    +0.000 C 
ENDROOT
BRANCH   1   2
ATOM      2  N   UNL     1      -3.896  -3.957   0.000  0.00  0.00    +0.000 NA
ATOM      3  C   UNL     1      -3.273  -4.497   0.000  0.00  0.00    +0.000 C 
ATOM      4  O   UNL     1      -3.429  -5.307   0.000  0.00  0.00    +0.000 OA
BRANCH   3   5
ATOM      5  C   UNL     1      -2.493  -4.226   0.000  0.00  0.00    +0.000 C 
BRANCH   5   6
ATOM      6  C   UNL     1      -1.869  -4.767   0.000  0.00  0.00    +0.000 C 
BRANCH   6   7
ATOM      7  C   UNL     1      -1.090  -4.497   0.000  0.00  0.00    +0.000 C 
BRANCH   7   8
ATOM      8  C   UNL     1      -0.466  -5.037   0.000  0.00  0.00    +0.000 C 
BRANCH   8   9
ATOM      9  C   UNL     1       0.313  -4.767   0.000  0.00  0.00    +0.000 C 
BRANCH   9  10
ATOM     10  C   UNL     1       0.937  -5.307   0.000  0.00  0.00    +0.000 C 
BRANCH  10  11
ATOM     11  C   UNL     1       1.716  -5.037   0.000  0.00  0.00    +0.000 C 
ATOM     12  O   UNL     1       1.872  -4.226   0.000  0.00  0.00    +0.000 OA
ATOM     13  N   UNL     1       2.340  -5.577   0.000  0.00  0.00    +0.000 NA
ATOM     14  O   UNL     1       3.120  -5.307   0.000  0.00  0.00    +0.000 OA
ENDBRANCH  10  11
ENDBRANCH   9  10
ENDBRANCH   8   9
ENDBRANCH   7   8
ENDBRANCH   6   7
ENDBRANCH   5   6
ENDBRANCH   3   5
ENDBRANCH   1   2
BRANCH   1  15
ATOM     15  C   UNL     1      -4.832  -5.037   0.000  0.00  0.00    +0.000 C 
ATOM     16  O   UNL     1      -5.611  -5.307   0.000  0.00  0.00    +0.000 OA
BRANCH  15  17
ATOM     17  O   UNL     1      -4.208  -5.577   0.000  0.00  0.00    +0.000 OA
ATOM     18  C   UNL     1      -4.364  -6.387   0.000  0.00  0.00    +0.000 C 
ENDBRANCH  15  17
ENDBRANCH   1  15
BRANCH   1  19
ATOM     19  C   UNL     1      -5.300  -3.686   0.000  0.00  0.00    +0.000 C 
BRANCH  19  26
ATOM     20  C   UNL     1      -6.235  -4.767   0.000  0.00  0.00    +0.000 A 
ATOM     21  C   UNL     1      -7.014  -5.037   0.000  0.00  0.00    +0.000 A 
ATOM     22  C   UNL     1      -7.638  -4.497   0.000  0.00  0.00    +0.000 A 
ATOM     23 BR   UNL     1      -8.418  -4.767   0.000  0.00  0.00    +0.000 Br
ATOM     24  C   UNL     1      -7.482  -3.686   0.000  0.00  0.00    +0.000 A 
ATOM     25  C   UNL     1      -6.703  -3.416   0.000  0.00  0.00    +0.000 A 
ATOM     26  C   UNL     1      -6.079  -3.957   0.000  0.00  0.00    +0.000 A 
ENDBRANCH  19  26
ENDBRANCH   1  19
TORSDOF 12
