REMARK  Name = S1H
REMARK  19 active torsions:
REMARK  status: ('A' for Active; 'I' for Inactive)
REMARK    1  A    between atoms: C_2  and  C_3
REMARK    2  A    between atoms: C_2  and  C_5
REMARK    3  A    between atoms: C_5  and  O_6
REMARK    4  A    between atoms: O_6  and  S_24
REMARK    5  A    between atoms: C_8  and  C_9
REMARK    6  A    between atoms: C_8  and  S_24
REMARK    7  A    between atoms: C_9  and  C_10
REMARK    8  A    between atoms: C_10  and  C_11
REMARK    9  A    between atoms: C_11  and  C_12
REMARK   10  A    between atoms: C_12  and  C_13
REMARK   11  A    between atoms: C_13  and  C_14
REMARK   12  A    between atoms: C_14  and  C_15
REMARK   13  A    between atoms: C_15  and  C_16
REMARK   14  A    between atoms: C_16  and  C_17
REMARK   15  A    between atoms: C_17  and  C_18
REMARK   16  A    between atoms: C_18  and  C_19
REMARK   17  A    between atoms: C_19  and  C_20
REMARK   18  A    between atoms: C_20  and  C_21
REMARK   19  A    between atoms: C_21  and  C_22
REMARK                            x       y       z     vdW  Elec       q    Type
REMARK                         _______ _______ _______ _____ _____    ______ ____
ROOT
ATOM      1  C   UNK     1      -2.013  -0.401   0.000  0.00  0.00    +0.000 C 
ENDROOT
BRANCH   1   2
ATOM      2  C   UNK     1      -2.752  -0.035   0.000  0.00  0.00    +0.000 C 
BRANCH   2   3
ATOM      3  C   UNK     1      -3.439  -0.492   0.000  0.00  0.00    +0.000 C 
BRANCH   3   4
ATOM      4  S   UNK     1      -4.178  -0.127   0.000  0.00  0.00    +0.000 S 
ATOM      5  O   UNK     1      -4.544  -0.866   0.000  0.00  0.00    +0.000 OA
ATOM      6  O   UNK     1      -3.812   0.613   0.000  0.00  0.00    +0.000 OA
BRANCH   4   7
ATOM      7  O   UNK     1      -4.918   0.239   0.000  0.00  0.00    +0.000 OA
BRANCH   7   8
ATOM      8  C   UNK     1      -5.604  -0.218   0.000  0.00  0.00    +0.000 C 
BRANCH   8  10
ATOM      9  N   UNK     1      -6.396   0.971   0.000  0.00  0.00    +0.000 NA
ATOM     10  C   UNK     1      -6.343   0.148   0.000  0.00  0.00    +0.000 C 
BRANCH  10  11
ATOM     11  C   UNK     1      -7.030  -0.309   0.000  0.00  0.00    +0.000 C 
ATOM     12  O   UNK     1      -7.769   0.056   0.000  0.00  0.00    +0.000 OA
ATOM     13  O   UNK     1      -6.977  -1.133   0.000  0.00  0.00    +0.000 OA
ENDBRANCH  10  11
ENDBRANCH   8  10
ENDBRANCH   7   8
ENDBRANCH   4   7
ENDBRANCH   3   4
ENDBRANCH   2   3
ENDBRANCH   1   2
BRANCH   1  14
ATOM     14  C   UNK     1      -1.326   0.056   0.000  0.00  0.00    +0.000 C 
BRANCH  14  15
ATOM     15  C   UNK     1      -0.587  -0.309   0.000  0.00  0.00    +0.000 C 
BRANCH  15  16
ATOM     16  C   UNK     1       0.100   0.148   0.000  0.00  0.00    +0.000 C 
BRANCH  16  17
ATOM     17  C   UNK     1       0.839  -0.218   0.000  0.00  0.00    +0.000 C 
BRANCH  17  18
ATOM     18  C   UNK     1       1.526   0.239   0.000  0.00  0.00    +0.000 C 
BRANCH  18  19
ATOM     19  C   UNK     1       2.265  -0.127   0.000  0.00  0.00    +0.000 C 
BRANCH  19  20
ATOM     20  C   UNK     1       2.952   0.331   0.000  0.00  0.00    +0.000 C 
BRANCH  20  21
ATOM     21  C   UNK     1       3.691  -0.035   0.000  0.00  0.00    +0.000 C 
BRANCH  21  22
ATOM     22  C   UNK     1       4.378   0.422   0.000  0.00  0.00    +0.000 C 
BRANCH  22  23
ATOM     23  C   UNK     1       5.117   0.056   0.000  0.00  0.00    +0.000 C 
BRANCH  23  24
ATOM     24  C   UNK     1       5.804   0.514   0.000  0.00  0.00    +0.000 C 
BRANCH  24  25
ATOM     25  C   UNK     1       6.543   0.148   0.000  0.00  0.00    +0.000 C 
ATOM     26  C   UNK     1       7.230   0.605   0.000  0.00  0.00    +0.000 C 
ENDBRANCH  24  25
ENDBRANCH  23  24
ENDBRANCH  22  23
ENDBRANCH  21  22
ENDBRANCH  20  21
ENDBRANCH  19  20
ENDBRANCH  18  19
ENDBRANCH  17  18
ENDBRANCH  16  17
ENDBRANCH  15  16
ENDBRANCH  14  15
ENDBRANCH   1  14
TORSDOF 19
