REMARK  Name = S23
REMARK  10 active torsions:
REMARK  status: ('A' for Active; 'I' for Inactive)
REMARK    1  A    between atoms: P_2  and  C_4
REMARK    2  A    between atoms: P_2  and  C_7
REMARK    3  A    between atoms: C_7  and  C_8
REMARK    4  A    between atoms: C_8  and  C_9
REMARK    5  A    between atoms: C_8  and  C_16
REMARK    6  A    between atoms: C_9  and  C_10
REMARK    7  A    between atoms: N_18  and  CA_19
REMARK    8  A    between atoms: CA_19  and  C_20
REMARK    9  A    between atoms: CA_19  and  CB_23
REMARK   10  A    between atoms: CB_23  and  CG_24
REMARK                            x       y       z     vdW  Elec       q    Type
REMARK                         _______ _______ _______ _____ _____    ______ ____
ROOT
ATOM      1  C   UNK A   0      -0.958   0.925   0.000  0.00  0.00    +0.000 C 
ENDROOT
BRANCH   1   2
ATOM      2  C   UNK A   0      -0.133   0.925   0.000  0.00  0.00    +0.000 C 
ATOM      3  O   UNK A   0       0.279   1.639   0.000  0.00  0.00    +0.000 OA
ATOM      4  N   PHE A   1       0.279   0.210   0.000  0.00  0.00    +0.000 NA
BRANCH   4   5
ATOM      5  CA  PHE A   1       1.104   0.210   0.000  0.00  0.00    +0.000 C 
BRANCH   5   6
ATOM      6  C   PHE A   1       1.517   0.925   0.000  0.00  0.00    +0.000 C 
ATOM      7  OXT PHE A   1       1.104   1.639   0.000  0.00  0.00    +0.000 OA
ATOM      8  O   PHE A   1       2.342   0.925   0.000  0.00  0.00    +0.000 OA
ENDBRANCH   5   6
BRANCH   5   9
ATOM      9  CB  PHE A   1       1.517  -0.504   0.000  0.00  0.00    +0.000 C 
BRANCH   9  10
ATOM     10  CG  PHE A   1       2.342  -0.504   0.000  0.00  0.00    +0.000 A 
ATOM     11  CD2 PHE A   1       2.754  -1.218   0.000  0.00  0.00    +0.000 A 
ATOM     12  CE2 PHE A   1       3.579  -1.218   0.000  0.00  0.00    +0.000 A 
ATOM     13  CZ  PHE A   1       3.992  -0.504   0.000  0.00  0.00    +0.000 A 
ATOM     14  CE1 PHE A   1       3.579   0.210   0.000  0.00  0.00    +0.000 A 
ATOM     15  CD1 PHE A   1       2.754   0.210   0.000  0.00  0.00    +0.000 A 
ENDBRANCH   9  10
ENDBRANCH   5   9
ENDBRANCH   4   5
ENDBRANCH   1   2
BRANCH   1  16
ATOM     16  C   UNK A   0      -1.371   1.639   0.000  0.00  0.00    +0.000 C 
BRANCH  16  17
ATOM     17  C   UNK A   0      -2.196   1.639   0.000  0.00  0.00    +0.000 A 
ATOM     18  C   UNK A   0      -2.608   2.354   0.000  0.00  0.00    +0.000 A 
ATOM     19  C   UNK A   0      -3.433   2.354   0.000  0.00  0.00    +0.000 A 
ATOM     20  C   UNK A   0      -3.846   1.639   0.000  0.00  0.00    +0.000 A 
ATOM     21  C   UNK A   0      -3.433   0.925   0.000  0.00  0.00    +0.000 A 
ATOM     22  C   UNK A   0      -2.608   0.925   0.000  0.00  0.00    +0.000 A 
ENDBRANCH  16  17
ENDBRANCH   1  16
BRANCH   1  23
ATOM     23  C   UNK A   0      -1.371   0.210   0.000  0.00  0.00    +0.000 C 
BRANCH  23  25
ATOM     24  O   UNK A   0      -0.244  -0.091   0.000  0.00  0.00    +0.000 OA
ATOM     25  P   UNK A   0      -0.958  -0.504   0.000  0.00  0.00    +0.000 P 
ATOM     26  O   UNK A   0      -1.673  -0.916   0.000  0.00  0.00    +0.000 OA
BRANCH  25  27
ATOM     27  C   UNK A   0      -0.546  -1.218   0.000  0.00  0.00    +0.000 C 
ATOM     28  N   UNK A   0       0.279  -1.218   0.000  0.00  0.00    +0.000 NA
ATOM     29  C   UNK A   0      -0.958  -1.933   0.000  0.00  0.00    +0.000 C 
ENDBRANCH  25  27
ENDBRANCH  23  25
ENDBRANCH   1  23
TORSDOF 10
