REMARK  Name = S27
REMARK  8 active torsions:
REMARK  status: ('A' for Active; 'I' for Inactive)
REMARK    1  A    between atoms: C_1  and  P_7
REMARK    2  A    between atoms: P_7  and  N_10
REMARK    3  A    between atoms: N_10  and  C_11
REMARK    4  A    between atoms: N_10  and  C_18
REMARK    5  A    between atoms: C_11  and  C_12
REMARK    6  A    between atoms: C_18  and  C_19
REMARK    7  A    between atoms: C_18  and  C_23
REMARK    8  A    between atoms: C_23  and  C_24
REMARK                            x       y       z     vdW  Elec       q    Type
REMARK                         _______ _______ _______ _____ _____    ______ ____
ROOT
ATOM      1  N   UNL     1       0.140   0.001   0.000  0.00  0.00    +0.000 NA
ENDROOT
BRANCH   1   2
ATOM      2  P   UNL     1      -0.575  -0.411   0.000  0.00  0.00    +0.000 P 
ATOM      3  O   UNL     1      -0.162  -1.126   0.000  0.00  0.00    +0.000 OA
ATOM      4  C   UNL     1      -0.987   0.303   0.000  0.00  0.00    +0.000 C 
BRANCH   2   5
ATOM      5  C   UNL     1      -1.289  -0.824   0.000  0.00  0.00    +0.000 A 
ATOM      6  C   UNL     1      -1.289  -1.649   0.000  0.00  0.00    +0.000 A 
ATOM      7  C   UNL     1      -2.004  -2.061   0.000  0.00  0.00    +0.000 A 
ATOM      8  C   UNL     1      -2.718  -1.649   0.000  0.00  0.00    +0.000 A 
ATOM      9  C   UNL     1      -2.718  -0.824   0.000  0.00  0.00    +0.000 A 
ATOM     10  C   UNL     1      -2.004  -0.411   0.000  0.00  0.00    +0.000 A 
ENDBRANCH   2   5
ENDBRANCH   1   2
BRANCH   1  11
ATOM     11  C   UNL     1       0.854  -0.411   0.000  0.00  0.00    +0.000 C 
BRANCH  11  12
ATOM     12  C   UNL     1       0.854  -1.236   0.000  0.00  0.00    +0.000 A 
ATOM     13  C   UNL     1       1.569  -1.649   0.000  0.00  0.00    +0.000 A 
ATOM     14  C   UNL     1       1.569  -2.474   0.000  0.00  0.00    +0.000 A 
ATOM     15  C   UNL     1       0.854  -2.886   0.000  0.00  0.00    +0.000 A 
ATOM     16  C   UNL     1       0.140  -2.474   0.000  0.00  0.00    +0.000 A 
ATOM     17  C   UNL     1       0.140  -1.649   0.000  0.00  0.00    +0.000 A 
ENDBRANCH  11  12
ENDBRANCH   1  11
BRANCH   1  18
ATOM     18  C   UNL     1       0.140   0.826   0.000  0.00  0.00    +0.000 C 
BRANCH  18  19
ATOM     19  C   UNL     1      -0.575   1.239   0.000  0.00  0.00    +0.000 C 
ATOM     20  N   UNL     1      -0.575   2.064   0.000  0.00  0.00    +0.000 NA
ATOM     21  O   UNL     1      -1.289   2.476   0.000  0.00  0.00    +0.000 OA
ATOM     22  O   UNL     1      -1.289   0.826   0.000  0.00  0.00    +0.000 OA
ENDBRANCH  18  19
BRANCH  18  23
ATOM     23  C   UNL     1       0.854   1.239   0.000  0.00  0.00    +0.000 C 
BRANCH  23  24
ATOM     24  C   UNL     1       0.854   2.064   0.000  0.00  0.00    +0.000 C 
ATOM     25  C   UNL     1       0.140   2.476   0.000  0.00  0.00    +0.000 C 
ATOM     26  C   UNL     1       1.569   2.476   0.000  0.00  0.00    +0.000 C 
ENDBRANCH  23  24
ENDBRANCH  18  23
ENDBRANCH   1  18
TORSDOF 8
