REMARK  Name = S2D
REMARK  3 active torsions:
REMARK  status: ('A' for Active; 'I' for Inactive)
REMARK    1  A    between atoms: C_2  and  C_3
REMARK    2  A    between atoms: N_9  and  CA_10
REMARK    3  A    between atoms: CA_10  and  C_12
REMARK                            x       y       z     vdW  Elec       q    Type
REMARK                         _______ _______ _______ _____ _____    ______ ____
ROOT
ATOM      1  O   UNK A   0       0.024   1.178   0.000  0.00  0.00    +0.000 OA
ATOM      2  C   UNK A   0       0.024   0.353   0.000  0.00  0.00    +0.000 C 
ATOM      3  N   ALA A   1       0.739  -0.060   0.000  0.00  0.00    +0.000 NA
ENDROOT
BRANCH   2   4
ATOM      4  C   UNK A   0      -0.690  -0.060   0.000  0.00  0.00    +0.000 A 
ATOM      5  C   UNK A   0      -0.690  -0.885   0.000  0.00  0.00    +0.000 A 
ATOM      6  C   UNK A   0      -1.405  -1.297   0.000  0.00  0.00    +0.000 A 
ATOM      7  C   UNK A   0      -2.119  -0.885   0.000  0.00  0.00    +0.000 A 
ATOM      8  C   UNK A   0      -2.119  -0.060   0.000  0.00  0.00    +0.000 A 
ATOM      9  C   UNK A   0      -1.405   0.353   0.000  0.00  0.00    +0.000 A 
ENDBRANCH   2   4
BRANCH   3  10
ATOM     10  CA  ALA A   1       1.453   0.353   0.000  0.00  0.00    +0.000 C 
ATOM     11  CB  ALA A   1       1.453   1.178   0.000  0.00  0.00    +0.000 C 
BRANCH  10  12
ATOM     12  C   ALA A   1       2.167  -0.060   0.000  0.00  0.00    +0.000 C 
ATOM     13  O   ALA A   1       2.882   0.353   0.000  0.00  0.00    +0.000 OA
ATOM     14  OXT ALA A   1       2.167  -0.885   0.000  0.00  0.00    +0.000 OA
ENDBRANCH  10  12
ENDBRANCH   3  10
TORSDOF 3
