REMARK  Name = S57
REMARK  9 active torsions:
REMARK  status: ('A' for Active; 'I' for Inactive)
REMARK    1  A    between atoms: O_2  and  C_3
REMARK    2  A    between atoms: C_7  and  O_10
REMARK    3  A    between atoms: O_10  and  C_11
REMARK    4  A    between atoms: C_11  and  C_12
REMARK    5  A    between atoms: C_12  and  C_13
REMARK    6  A    between atoms: C_13  and  C_14
REMARK    7  A    between atoms: C_14  and  C_15
REMARK    8  A    between atoms: C_15  and  C_16
REMARK    9  A    between atoms: C_16  and  N_17
REMARK                            x       y       z     vdW  Elec       q    Type
REMARK                         _______ _______ _______ _____ _____    ______ ____
ROOT
ATOM      1  C   UNL     1      -0.647   0.303   0.000  0.00  0.00    +0.000 C 
ENDROOT
BRANCH   1   2
ATOM      2  C   UNL     1       0.068   0.715   0.000  0.00  0.00    +0.000 C 
BRANCH   2   3
ATOM      3  C   UNL     1       0.782   0.303   0.000  0.00  0.00    +0.000 C 
BRANCH   3   4
ATOM      4  C   UNL     1       1.496   0.715   0.000  0.00  0.00    +0.000 C 
BRANCH   4   5
ATOM      5  C   UNL     1       2.211   0.303   0.000  0.00  0.00    +0.000 C 
BRANCH   5   6
ATOM      6  C   UNL     1       2.925   0.715   0.000  0.00  0.00    +0.000 C 
BRANCH   6   7
ATOM      7  N   UNL     1       3.640   0.303   0.000  0.00  0.00    +0.000 N 
ATOM      8  C   UNL     1       4.394   0.638   0.000  0.00  0.00    +0.000 A 
ATOM      9  N   UNL     1       4.946   0.025   0.000  0.00  0.00    +0.000 NA
ATOM     10  C   UNL     1       4.533  -0.689   0.000  0.00  0.00    +0.000 A 
ATOM     11  C   UNL     1       3.726  -0.518   0.000  0.00  0.00    +0.000 A 
ENDBRANCH   6   7
ENDBRANCH   5   6
ENDBRANCH   4   5
ENDBRANCH   3   4
ENDBRANCH   2   3
ENDBRANCH   1   2
BRANCH   1  12
ATOM     12  O   UNL     1      -1.361   0.715   0.000  0.00  0.00    +0.000 OA
BRANCH  12  17
ATOM     13  C   UNL     1      -3.505  -0.522   0.000  0.00  0.00    +0.000 A 
ATOM     14  C   UNL     1      -3.505   0.303   0.000  0.00  0.00    +0.000 A 
ATOM     15  C   UNL     1      -2.790   0.715   0.000  0.00  0.00    +0.000 A 
ATOM     16 CL   UNL     1      -2.790   1.540   0.000  0.00  0.00    +0.000 Cl
ATOM     17  C   UNL     1      -2.076   0.303   0.000  0.00  0.00    +0.000 A 
ATOM     18  C   UNL     1      -2.076  -0.522   0.000  0.00  0.00    +0.000 A 
ATOM     19  C   UNL     1      -2.790  -0.935   0.000  0.00  0.00    +0.000 A 
BRANCH  13  21
ATOM     20  C   UNL     1      -4.219  -1.760   0.000  0.00  0.00    +0.000 C 
ATOM     21  O   UNL     1      -4.219  -0.935   0.000  0.00  0.00    +0.000 OA
ENDBRANCH  13  21
ENDBRANCH  12  17
ENDBRANCH   1  12
TORSDOF 9
