REMARK  Name = S58
REMARK  4 active torsions:
REMARK  status: ('A' for Active; 'I' for Inactive)
REMARK    1  A    between atoms: C_2  and  C_11
REMARK    2  A    between atoms: C_3  and  C_4
REMARK    3  A    between atoms: C_5  and  N_17
REMARK    4  A    between atoms: C_8  and  S_26
REMARK                            x       y       z     vdW  Elec       q    Type
REMARK                         _______ _______ _______ _____ _____    ______ ____
ROOT
ATOM      1  C   UNL     1      -1.631   1.438   0.000  0.00  0.00    +0.000 A 
ATOM      2  C   UNL     1      -0.964   0.953   0.000  0.00  0.00    +0.000 A 
ATOM      3  C   UNL     1      -2.298   0.953   0.000  0.00  0.00    +0.000 A 
ATOM      4  N   UNL     1      -1.218   0.168   0.000  0.00  0.00    +0.000 N 
ATOM      5  N   UNL     1      -2.043   0.168   0.000  0.00  0.00    +0.000 NA
ENDROOT
BRANCH   2   6
ATOM      6  C   UNL     1      -0.179   1.208   0.000  0.00  0.00    +0.000 A 
ATOM      7  C   UNL     1      -0.007   2.014   0.000  0.00  0.00    +0.000 A 
ATOM      8  C   UNL     1       0.777   2.269   0.000  0.00  0.00    +0.000 A 
ATOM      9  C   UNL     1       1.390   1.717   0.000  0.00  0.00    +0.000 A 
ATOM     10  C   UNL     1       1.219   0.910   0.000  0.00  0.00    +0.000 A 
ATOM     11  C   UNL     1       0.434   0.655   0.000  0.00  0.00    +0.000 A 
ATOM     12 BR   UNL     1       2.175   1.972   0.000  0.00  0.00    +0.000 Br
ENDBRANCH   2   6
BRANCH   4  13
ATOM     13  C   UNL     1      -0.734  -0.499   0.000  0.00  0.00    +0.000 A 
ATOM     14  C   UNL     1       0.087  -0.413   0.000  0.00  0.00    +0.000 A 
ATOM     15  C   UNL     1       0.572  -1.081   0.000  0.00  0.00    +0.000 A 
ATOM     16  C   UNL     1       0.236  -1.834   0.000  0.00  0.00    +0.000 A 
ATOM     17  C   UNL     1      -0.584  -1.921   0.000  0.00  0.00    +0.000 A 
ATOM     18  C   UNL     1      -1.069  -1.253   0.000  0.00  0.00    +0.000 A 
BRANCH  16  22
ATOM     19  N   UNL     1       1.206  -3.169   0.000  0.00  0.00    +0.000 NA
ATOM     20  O   UNL     1       1.389  -2.017   0.000  0.00  0.00    +0.000 OA
ATOM     21  O   UNL     1       0.054  -2.987   0.000  0.00  0.00    +0.000 OA
ATOM     22  S   UNL     1       0.721  -2.502   0.000  0.00  0.00    +0.000 S 
ENDBRANCH  16  22
ENDBRANCH   4  13
BRANCH   3  23
ATOM     23  C   UNL     1      -3.083   1.208   0.000  0.00  0.00    +0.000 C 
ATOM     24  F   UNL     1      -3.868   1.462   0.000  0.00  0.00    +0.000 F 
ATOM     25  F   UNL     1      -3.338   0.423   0.000  0.00  0.00    +0.000 F 
ATOM     26  F   UNL     1      -2.828   1.992   0.000  0.00  0.00    +0.000 F 
ENDBRANCH   3  23
TORSDOF 4
