REMARK  Name = S5H
REMARK  6 active torsions:
REMARK  status: ('A' for Active; 'I' for Inactive)
REMARK    1  A    between atoms: C_3  and  O_4
REMARK    2  A    between atoms: O_4  and  C_24
REMARK    3  A    between atoms: C_18  and  C_21
REMARK    4  A    between atoms: C_24  and  C_26
REMARK    5  A    between atoms: C_26  and  C_27
REMARK    6  A    between atoms: C_27  and  C_28
REMARK                            x       y       z     vdW  Elec       q    Type
REMARK                         _______ _______ _______ _____ _____    ______ ____
ROOT
ATOM      1  C   UNL     1       0.121  -1.161   0.000  0.00  0.00    +0.000 C 
ATOM      2  C   UNL     1       0.835  -1.574   0.000  0.00  0.00    +0.000 C 
ATOM      3  C   UNL     1       1.550  -1.161   0.000  0.00  0.00    +0.000 C 
ATOM      4  C   UNL     1       1.550  -0.336   0.000  0.00  0.00    +0.000 C 
ATOM      5  C   UNL     1       0.835   0.076   0.000  0.00  0.00    +0.000 C 
ATOM      6  C   UNL     1       0.835   0.901   0.000  0.00  0.00    +0.000 C 
ATOM      7  C   UNL     1       0.121   1.314   0.000  0.00  0.00    +0.000 C 
ATOM      8  C   UNL     1      -0.594   0.901   0.000  0.00  0.00    +0.000 C 
ATOM      9  C   UNL     1      -0.594   0.076   0.000  0.00  0.00    +0.000 C 
ATOM     10  C   UNL     1       0.121  -0.336   0.000  0.00  0.00    +0.000 C 
ATOM     11  C   UNL     1      -1.308  -0.336   0.000  0.00  0.00    +0.000 C 
ATOM     12  C   UNL     1      -2.023   0.076   0.000  0.00  0.00    +0.000 C 
ATOM     13  C   UNL     1      -2.023   0.901   0.000  0.00  0.00    +0.000 C 
ATOM     14  C   UNL     1      -1.308   1.314   0.000  0.00  0.00    +0.000 C 
ATOM     15  C   UNL     1      -1.480   2.121   0.000  0.00  0.00    +0.000 C 
ATOM     16  C   UNL     1      -2.300   2.207   0.000  0.00  0.00    +0.000 C 
ATOM     17  C   UNL     1      -2.636   1.453   0.000  0.00  0.00    +0.000 C 
ATOM     18  C   UNL     1      -2.776   0.566   0.000  0.00  0.00    +0.000 C 
ATOM     19  C   UNL     1      -0.594  -0.749   0.000  0.00  0.00    +0.000 C 
ENDROOT
BRANCH  17  20
ATOM     20  C   UNL     1      -3.443   1.282   0.000  0.00  0.00    +0.000 C 
ATOM     21  O   UNL     1      -3.995   1.895   0.000  0.00  0.00    +0.000 OA
ATOM     22  C   UNL     1      -3.698   0.497   0.000  0.00  0.00    +0.000 C 
ENDBRANCH  17  20
BRANCH   3  23
ATOM     23  O   UNL     1       2.264  -1.574   0.000  0.00  0.00    +0.000 OA
BRANCH  23  24
ATOM     24  C   UNL     1       2.979  -1.161   0.000  0.00  0.00    +0.000 C 
ATOM     25  O   UNL     1       2.979  -0.336   0.000  0.00  0.00    +0.000 OA
BRANCH  24  26
ATOM     26  C   UNL     1       3.693  -1.574   0.000  0.00  0.00    +0.000 C 
BRANCH  26  27
ATOM     27  C   UNL     1       4.407  -1.161   0.000  0.00  0.00    +0.000 C 
BRANCH  27  28
ATOM     28  C   UNL     1       5.122  -1.574   0.000  0.00  0.00    +0.000 C 
ATOM     29  O   UNL     1       5.837  -1.161   0.000  0.00  0.00    +0.000 OA
ATOM     30  O   UNL     1       5.122  -2.399   0.000  0.00  0.00    +0.000 OA
ENDBRANCH  27  28
ENDBRANCH  26  27
ENDBRANCH  24  26
ENDBRANCH  23  24
ENDBRANCH   3  23
TORSDOF 6
