REMARK  Name = S60
REMARK  0 active torsions:
REMARK  status: ('A' for Active; 'I' for Inactive)
REMARK                            x       y       z     vdW  Elec       q    Type
REMARK                         _______ _______ _______ _____ _____    ______ ____
ROOT
ATOM      1  C   UNL     1      -1.899   0.479   0.000  0.00  0.00    +0.000 A 
ATOM      2  N   UNL     1      -2.614   0.892   0.000  0.00  0.00    +0.000 NA
ATOM      3  N   UNL     1      -1.185   0.892   0.000  0.00  0.00    +0.000 NA
ATOM      4  C   UNL     1      -0.470   0.479   0.000  0.00  0.00    +0.000 A 
ATOM      5  C   UNL     1       0.244   0.892   0.000  0.00  0.00    +0.000 A 
ATOM      6  C   UNL     1       0.959   0.479   0.000  0.00  0.00    +0.000 A 
ATOM      7  N   UNL     1       1.744   0.734   0.000  0.00  0.00    +0.000 NA
ATOM      8  C   UNL     1       2.228   0.067   0.000  0.00  0.00    +0.000 A 
ATOM      9  C   UNL     1       3.053   0.067   0.000  0.00  0.00    +0.000 C 
ATOM     10  N   UNL     1       1.744  -0.601   0.000  0.00  0.00    +0.000 NA
ATOM     11  C   UNL     1       0.959  -0.346   0.000  0.00  0.00    +0.000 A 
ATOM     12  C   UNL     1       0.244  -0.758   0.000  0.00  0.00    +0.000 A 
ATOM     13  C   UNL     1      -0.470  -0.346   0.000  0.00  0.00    +0.000 A 
ATOM     14  C   UNL     1      -1.185  -0.758   0.000  0.00  0.00    +0.000 A 
ATOM     15  O   UNL     1      -1.185  -1.583   0.000  0.00  0.00    +0.000 OA
ATOM     16  N   UNL     1      -1.899  -0.346   0.000  0.00  0.00    +0.000 NA
ENDROOT
TORSDOF 0
