REMARK  Name = S79
REMARK  2 active torsions:
REMARK  status: ('A' for Active; 'I' for Inactive)
REMARK    1  A    between atoms: N_9  and  C_10
REMARK    2  A    between atoms: C_10  and  C_11
REMARK                            x       y       z     vdW  Elec       q    Type
REMARK                         _______ _______ _______ _____ _____    ______ ____
ROOT
ATOM      1  N   UNL     1      -4.585  -1.464   0.000  0.00  0.00    +0.000 NA
ATOM      2  C   UNL     1      -3.871  -1.052   0.000  0.00  0.00    +0.000 A 
ATOM      3  N   UNL     1      -3.156  -1.464   0.000  0.00  0.00    +0.000 NA
ATOM      4  C   UNL     1      -2.442  -1.052   0.000  0.00  0.00    +0.000 A 
ATOM      5  C   UNL     1      -1.727  -1.464   0.000  0.00  0.00    +0.000 A 
ATOM      6  C   UNL     1      -1.013  -1.052   0.000  0.00  0.00    +0.000 A 
ATOM      7  N   UNL     1      -0.228  -1.307   0.000  0.00  0.00    +0.000 NA
ATOM      8  C   UNL     1       0.257  -0.639   0.000  0.00  0.00    +0.000 A 
ATOM      9  N   UNL     1       1.082  -0.639   0.000  0.00  0.00    +0.000 NA
ATOM     10  N   UNL     1      -0.228   0.028   0.000  0.00  0.00    +0.000 NA
ATOM     11  C   UNL     1      -1.013  -0.227   0.000  0.00  0.00    +0.000 A 
ATOM     12  C   UNL     1      -1.727   0.186   0.000  0.00  0.00    +0.000 A 
ATOM     13  C   UNL     1      -2.442  -0.227   0.000  0.00  0.00    +0.000 A 
ATOM     14  C   UNL     1      -3.156   0.186   0.000  0.00  0.00    +0.000 A 
ATOM     15  O   UNL     1      -3.156   1.011   0.000  0.00  0.00    +0.000 OA
ATOM     16  N   UNL     1      -3.871  -0.227   0.000  0.00  0.00    +0.000 NA
ENDROOT
BRANCH   9  17
ATOM     17  C   UNL     1       1.494   0.075   0.000  0.00  0.00    +0.000 C 
BRANCH  17  18
ATOM     18  C   UNL     1       2.319   0.075   0.000  0.00  0.00    +0.000 A 
ATOM     19  C   UNL     1       2.732   0.790   0.000  0.00  0.00    +0.000 A 
ATOM     20  C   UNL     1       2.319   1.504   0.000  0.00  0.00    +0.000 A 
ATOM     21  C   UNL     1       2.732   2.219   0.000  0.00  0.00    +0.000 A 
ATOM     22  C   UNL     1       3.557   2.219   0.000  0.00  0.00    +0.000 A 
ATOM     23  C   UNL     1       3.969   1.504   0.000  0.00  0.00    +0.000 A 
ATOM     24  C   UNL     1       3.557   0.790   0.000  0.00  0.00    +0.000 A 
ATOM     25  C   UNL     1       3.969   0.075   0.000  0.00  0.00    +0.000 A 
ATOM     26  C   UNL     1       3.557  -0.639   0.000  0.00  0.00    +0.000 A 
ATOM     27  C   UNL     1       2.732  -0.639   0.000  0.00  0.00    +0.000 A 
ENDBRANCH  17  18
ENDBRANCH   9  17
TORSDOF 2
