REMARK  Name = S80
REMARK  12 active torsions:
REMARK  status: ('A' for Active; 'I' for Inactive)
REMARK    1  A    between atoms: N_3  and  C_26
REMARK    2  A    between atoms: C_8  and  N_9
REMARK    3  A    between atoms: C_10  and  C_11
REMARK    4  A    between atoms: C_11  and  C_12
REMARK    5  A    between atoms: C_11  and  C_21
REMARK    6  A    between atoms: C_12  and  C_13
REMARK    7  A    between atoms: C_12  and  C_17
REMARK    8  A    between atoms: C_17  and  C_18
REMARK    9  A    between atoms: C_18  and  C_19
REMARK   10  A    between atoms: C_21  and  C_22
REMARK   11  A    between atoms: C_26  and  C_27
REMARK   12  A    between atoms: C_27  and  O_28
REMARK                            x       y       z     vdW  Elec       q    Type
REMARK                         _______ _______ _______ _____ _____    ______ ____
ROOT
ATOM      1  N   UNL     1       0.440  -0.313   0.000  0.00  0.00    +0.000 NA
ATOM      2  C   UNL     1      -0.385  -0.313   0.000  0.00  0.00    +0.000 C 
ATOM      3  O   UNL     1      -0.798  -1.028   0.000  0.00  0.00    +0.000 OA
ENDROOT
BRANCH   1  11
ATOM      4  C   UNL     1       1.675  -0.966   0.000  0.00  0.00    +0.000 C 
ATOM      5  O   UNL     1       1.976  -0.198   0.000  0.00  0.00    +0.000 OA
ATOM      6  N   UNL     1       2.236  -1.571   0.000  0.00  0.00    +0.000 N 
ATOM      7  C   UNL     1       2.113  -2.387   0.000  0.00  0.00    +0.000 C 
ATOM      8  C   UNL     1       1.399  -2.799   0.000  0.00  0.00    +0.000 C 
ATOM      9  C   UNL     1       0.631  -2.498   0.000  0.00  0.00    +0.000 C 
ATOM     10  C   UNL     1       0.388  -1.710   0.000  0.00  0.00    +0.000 C 
ATOM     11  C   UNL     1       0.852  -1.028   0.000  0.00  0.00    +0.000 C 
BRANCH   6  12
ATOM     12  C   UNL     1       3.025  -1.328   0.000  0.00  0.00    +0.000 C 
BRANCH  12  13
ATOM     13  C   UNL     1       3.208  -0.523   0.000  0.00  0.00    +0.000 C 
BRANCH  13  14
ATOM     14  O   UNL     1       3.997  -0.280   0.000  0.00  0.00    +0.000 OA
ATOM     15  C   UNL     1       4.180   0.524   0.000  0.00  0.00    +0.000 C 
ENDBRANCH  13  14
ENDBRANCH  12  13
ENDBRANCH   6  12
ENDBRANCH   1  11
BRANCH   2  16
ATOM     16  C   UNL     1      -0.798   0.401   0.000  0.00  0.00    +0.000 C 
BRANCH  16  17
ATOM     17  C   UNL     1      -1.623   0.401   0.000  0.00  0.00    +0.000 C 
BRANCH  17  18
ATOM     18  C   UNL     1      -2.035  -0.313   0.000  0.00  0.00    +0.000 C 
ATOM     19  O   UNL     1      -2.860  -0.313   0.000  0.00  0.00    +0.000 OA
ATOM     20  N   UNL     1      -1.623  -1.028   0.000  0.00  0.00    +0.000 NA
ATOM     21  O   UNL     1      -2.035  -1.742   0.000  0.00  0.00    +0.000 OA
ENDBRANCH  17  18
BRANCH  17  22
ATOM     22  C   UNL     1      -2.035   1.116   0.000  0.00  0.00    +0.000 C 
BRANCH  22  23
ATOM     23  C   UNL     1      -2.860   1.116   0.000  0.00  0.00    +0.000 C 
BRANCH  23  24
ATOM     24  C   UNL     1      -3.273   1.830   0.000  0.00  0.00    +0.000 C 
ATOM     25  O   UNL     1      -4.098   1.830   0.000  0.00  0.00    +0.000 OA
ENDBRANCH  23  24
ENDBRANCH  22  23
ENDBRANCH  17  22
ENDBRANCH  16  17
BRANCH  16  26
ATOM     26  C   UNL     1      -0.385   1.116   0.000  0.00  0.00    +0.000 C 
BRANCH  26  27
ATOM     27  C   UNL     1      -0.798   1.830   0.000  0.00  0.00    +0.000 C 
ATOM     28  C   UNL     1      -1.623   1.830   0.000  0.00  0.00    +0.000 C 
ATOM     29  C   UNL     1      -0.385   2.545   0.000  0.00  0.00    +0.000 C 
ENDBRANCH  26  27
ENDBRANCH  16  26
ENDBRANCH   2  16
TORSDOF 12
