REMARK  Name = S91
REMARK  5 active torsions:
REMARK  status: ('A' for Active; 'I' for Inactive)
REMARK    1  A    between atoms: C_1  and  C_7
REMARK    2  A    between atoms: C_4  and  N_20
REMARK    3  A    between atoms: C_7  and  C_8
REMARK    4  A    between atoms: C_13  and  C_17
REMARK    5  A    between atoms: N_19  and  C_25
REMARK                            x       y       z     vdW  Elec       q    Type
REMARK                         _______ _______ _______ _____ _____    ______ ____
ROOT
ATOM      1  N   UNL     1      -0.036  -0.688   0.000  0.00  0.00    +0.000 NA
ATOM      2  C   UNL     1      -0.751  -1.101   0.000  0.00  0.00    +0.000 A 
ATOM      3  C   UNL     1      -1.466  -0.688   0.000  0.00  0.00    +0.000 A 
ATOM      4  C   UNL     1      -1.466   0.137   0.000  0.00  0.00    +0.000 A 
ATOM      5  N   UNL     1      -0.751   0.549   0.000  0.00  0.00    +0.000 NA
ATOM      6  C   UNL     1      -0.036   0.137   0.000  0.00  0.00    +0.000 A 
ATOM      7  N   UNL     1      -0.751  -1.926   0.000  0.00  0.00    +0.000 NA
ATOM      8  N   UNL     1       0.678   0.549   0.000  0.00  0.00    +0.000 NA
ENDROOT
BRANCH   7  12
ATOM      9  C   UNL     1       1.392  -3.163   0.000  0.00  0.00    +0.000 A 
ATOM     10  C   UNL     1       0.678  -3.576   0.000  0.00  0.00    +0.000 A 
ATOM     11  C   UNL     1      -0.036  -3.163   0.000  0.00  0.00    +0.000 A 
ATOM     12  C   UNL     1      -0.036  -2.338   0.000  0.00  0.00    +0.000 A 
ATOM     13  C   UNL     1       0.678  -1.926   0.000  0.00  0.00    +0.000 A 
ATOM     14  C   UNL     1       1.392  -2.338   0.000  0.00  0.00    +0.000 A 
ATOM     15  C   UNL     1       2.107  -1.926   0.000  0.00  0.00    +0.000 C 
ENDBRANCH   7  12
BRANCH   8  19
ATOM     16  C   UNL     1       0.678   3.024   0.000  0.00  0.00    +0.000 A 
ATOM     17  C   UNL     1       1.392   2.612   0.000  0.00  0.00    +0.000 A 
ATOM     18  C   UNL     1       1.392   1.787   0.000  0.00  0.00    +0.000 A 
ATOM     19  C   UNL     1       0.678   1.374   0.000  0.00  0.00    +0.000 A 
ATOM     20  C   UNL     1      -0.036   1.787   0.000  0.00  0.00    +0.000 A 
ATOM     21  C   UNL     1      -0.036   2.612   0.000  0.00  0.00    +0.000 A 
BRANCH  16  22
ATOM     22  C   UNL     1       0.678   3.849   0.000  0.00  0.00    +0.000 C 
BRANCH  22  23
ATOM     23  C   UNL     1      -0.036   4.262   0.000  0.00  0.00    +0.000 C 
ATOM     24  O   UNL     1      -0.036   5.087   0.000  0.00  0.00    +0.000 OA
ATOM     25  O   UNL     1      -0.751   3.849   0.000  0.00  0.00    +0.000 OA
ENDBRANCH  22  23
ENDBRANCH  16  22
ENDBRANCH   8  19
BRANCH   3  26
ATOM     26  C   UNL     1      -2.180  -1.101   0.000  0.00  0.00    +0.000 C 
ATOM     27  O   UNL     1      -2.894  -0.688   0.000  0.00  0.00    +0.000 OA
ATOM     28  N   UNL     1      -2.180  -1.926   0.000  0.00  0.00    +0.000 NA
ENDBRANCH   3  26
TORSDOF 5
