REMARK  Name = S98
REMARK  2 active torsions:
REMARK  status: ('A' for Active; 'I' for Inactive)
REMARK    1  A    between atoms: N_6  and  C_7
REMARK    2  A    between atoms: C_7  and  C_8
REMARK                            x       y       z     vdW  Elec       q    Type
REMARK                         _______ _______ _______ _____ _____    ______ ____
ROOT
ATOM      1  N   UNL     1       0.277  -0.914   0.000  0.00  0.00    +0.000 NA
ATOM      2  C   UNL     1      -0.508  -0.660   0.000  0.00  0.00    +0.000 A 
ATOM      3  C   UNL     1      -0.508   0.165   0.000  0.00  0.00    +0.000 A 
ATOM      4  N   UNL     1       0.277   0.420   0.000  0.00  0.00    +0.000 NA
ATOM      5  C   UNL     1       0.762  -0.247   0.000  0.00  0.00    +0.000 A 
ATOM      6  N   UNL     1       1.587  -0.247   0.000  0.00  0.00    +0.000 NA
ATOM      7  C   UNL     1      -1.222   0.578   0.000  0.00  0.00    +0.000 A 
ATOM      8  C   UNL     1      -1.937   0.165   0.000  0.00  0.00    +0.000 A 
ATOM      9  C   UNL     1      -1.937  -0.660   0.000  0.00  0.00    +0.000 A 
ATOM     10  C   UNL     1      -2.651  -1.072   0.000  0.00  0.00    +0.000 A 
ATOM     11  O   UNL     1      -2.651  -1.897   0.000  0.00  0.00    +0.000 OA
ATOM     12  N   UNL     1      -3.366  -0.660   0.000  0.00  0.00    +0.000 NA
ATOM     13  C   UNL     1      -3.366   0.165   0.000  0.00  0.00    +0.000 A 
ATOM     14  N   UNL     1      -4.080   0.578   0.000  0.00  0.00    +0.000 NA
ATOM     15  N   UNL     1      -2.651   0.578   0.000  0.00  0.00    +0.000 NA
ATOM     16  C   UNL     1      -1.222  -1.072   0.000  0.00  0.00    +0.000 A 
ENDROOT
BRANCH   6  17
ATOM     17  C   UNL     1       1.999   0.467   0.000  0.00  0.00    +0.000 C 
BRANCH  17  18
ATOM     18  C   UNL     1       2.824   0.467   0.000  0.00  0.00    +0.000 A 
ATOM     19  C   UNL     1       3.309   1.135   0.000  0.00  0.00    +0.000 A 
ATOM     20  C   UNL     1       4.094   0.880   0.000  0.00  0.00    +0.000 A 
ATOM     21  C   UNL     1       4.094   0.055   0.000  0.00  0.00    +0.000 A 
ATOM     22  S   UNL     1       3.309  -0.200   0.000  0.00  0.00    +0.000 S 
ENDBRANCH  17  18
ENDBRANCH   6  17
TORSDOF 2
