REMARK  Name = SA1
REMARK  3 active torsions:
REMARK  status: ('A' for Active; 'I' for Inactive)
REMARK    1  A    between atoms: C_9  and  C_10
REMARK    2  A    between atoms: C_9  and  C_18
REMARK    3  A    between atoms: C_10  and  C_11
REMARK                            x       y       z     vdW  Elec       q    Type
REMARK                         _______ _______ _______ _____ _____    ______ ____
ROOT
ATOM      1  C   UNL     1      -1.149   0.978   0.000  0.00  0.00    +0.000 C 
ATOM      2  O   UNL     1      -0.664   0.310   0.000  0.00  0.00    +0.000 OA
ATOM      3  C   UNL     1       0.120   0.565   0.000  0.00  0.00    +0.000 C 
ATOM      4  C   UNL     1       0.120  -0.260   0.000  0.00  0.00    +0.000 C 
ATOM      5  C   UNL     1       0.120   1.390   0.000  0.00  0.00    +0.000 C 
ATOM      6  C   UNL     1       0.905   1.645   0.000  0.00  0.00    +0.000 C 
ATOM      7  O   UNL     1       1.160   2.430   0.000  0.00  0.00    +0.000 OA
ATOM      8  N   UNL     1       1.390   0.978   0.000  0.00  0.00    +0.000 NA
ATOM      9  C   UNL     1       0.905   0.310   0.000  0.00  0.00    +0.000 C 
ATOM     10  C   UNL     1      -0.664   1.645   0.000  0.00  0.00    +0.000 C 
ENDROOT
BRANCH   9  11
ATOM     11  C   UNL     1       0.742  -0.498   0.000  0.00  0.00    +0.000 C 
ATOM     12  O   UNL     1       1.361  -1.044   0.000  0.00  0.00    +0.000 OA
BRANCH  11  13
ATOM     13  C   UNL     1      -0.040  -0.761   0.000  0.00  0.00    +0.000 C 
ATOM     14  C   UNL     1      -0.203  -1.570   0.000  0.00  0.00    +0.000 C 
ATOM     15  C   UNL     1      -0.985  -1.833   0.000  0.00  0.00    +0.000 C 
ATOM     16  C   UNL     1      -1.604  -1.288   0.000  0.00  0.00    +0.000 C 
ATOM     17  C   UNL     1      -1.441  -0.479   0.000  0.00  0.00    +0.000 C 
ATOM     18  C   UNL     1      -0.659  -0.216   0.000  0.00  0.00    +0.000 C 
ENDBRANCH  11  13
ENDBRANCH   9  11
BRANCH   9  19
ATOM     19  C   UNL     1       1.512  -0.248   0.000  0.00  0.00    +0.000 C 
ATOM     20  O   UNL     1       2.299  -0.001   0.000  0.00  0.00    +0.000 OA
ENDBRANCH   9  19
TORSDOF 3
