REMARK  Name = SAG
REMARK  6 active torsions:
REMARK  status: ('A' for Active; 'I' for Inactive)
REMARK    1  A    between atoms: C_7  and  C_8
REMARK    2  A    between atoms: C_8  and  O_9
REMARK    3  A    between atoms: O_9  and  C_10
REMARK    4  A    between atoms: C_15  and  C_16
REMARK    5  A    between atoms: N_17  and  C_18
REMARK    6  A    between atoms: C_18  and  C_20
REMARK                            x       y       z     vdW  Elec       q    Type
REMARK                         _______ _______ _______ _____ _____    ______ ____
ROOT
ATOM      1  C   UNL     1       0.031   0.879   0.000  0.00  0.00    +0.000 A 
ATOM      2  C   UNL     1       0.746   1.292   0.000  0.00  0.00    +0.000 A 
ATOM      3  C   UNL     1       1.460   0.879   0.000  0.00  0.00    +0.000 A 
ATOM      4  C   UNL     1       0.031   0.054   0.000  0.00  0.00    +0.000 A 
ATOM      5  C   UNL     1       0.746  -0.358   0.000  0.00  0.00    +0.000 A 
ATOM      6  C   UNL     1       1.460   0.054   0.000  0.00  0.00    +0.000 A 
ENDROOT
BRANCH   6   7
ATOM      7  C   UNL     1       2.175  -0.358   0.000  0.00  0.00    +0.000 C 
ATOM      8  N   UNL     1       2.175  -1.183   0.000  0.00  0.00    +0.000 NA
BRANCH   8   9
ATOM      9  C   UNL     1       2.889  -1.596   0.000  0.00  0.00    +0.000 C 
ATOM     10  C   UNL     1       3.604  -1.183   0.000  0.00  0.00    +0.000 C 
BRANCH   9  11
ATOM     11  C   UNL     1       2.889  -2.421   0.000  0.00  0.00    +0.000 C 
ATOM     12  O   UNL     1       3.604  -2.833   0.000  0.00  0.00    +0.000 OA
ATOM     13  N   UNL     1       2.175  -2.833   0.000  0.00  0.00    +0.000 NA
ENDBRANCH   9  11
ENDBRANCH   8   9
ENDBRANCH   6   7
BRANCH   1  14
ATOM     14  O   UNL     1      -0.683   1.292   0.000  0.00  0.00    +0.000 OA
BRANCH  14  15
ATOM     15  C   UNL     1      -1.398   0.879   0.000  0.00  0.00    +0.000 C 
BRANCH  15  22
ATOM     16  F   UNL     1      -2.827   3.354   0.000  0.00  0.00    +0.000 F 
ATOM     17  C   UNL     1      -2.827   2.529   0.000  0.00  0.00    +0.000 A 
ATOM     18  C   UNL     1      -2.112   2.117   0.000  0.00  0.00    +0.000 A 
ATOM     19  C   UNL     1      -3.541   2.117   0.000  0.00  0.00    +0.000 A 
ATOM     20  C   UNL     1      -3.541   1.292   0.000  0.00  0.00    +0.000 A 
ATOM     21  C   UNL     1      -2.827   0.879   0.000  0.00  0.00    +0.000 A 
ATOM     22  C   UNL     1      -2.112   1.292   0.000  0.00  0.00    +0.000 A 
ENDBRANCH  15  22
ENDBRANCH  14  15
ENDBRANCH   1  14
TORSDOF 6
