REMARK  Name = SAV
REMARK  5 active torsions:
REMARK  status: ('A' for Active; 'I' for Inactive)
REMARK    1  A    between atoms: N_1  and  C_3
REMARK    2  A    between atoms: N_2  and  C_19
REMARK    3  A    between atoms: C_12  and  O_30
REMARK    4  A    between atoms: O_15  and  C_16
REMARK    5  A    between atoms: C_27  and  O_28
REMARK                            x       y       z     vdW  Elec       q    Type
REMARK                         _______ _______ _______ _____ _____    ______ ____
ROOT
ATOM      1  N   UNL     1       1.460  -0.335   0.000  0.00  0.00    +0.000 NA
ATOM      2  N   UNL     1       0.031   2.140   0.000  0.00  0.00    +0.000 NA
ATOM      3  C   UNL     1       0.745   0.077   0.000  0.00  0.00    +0.000 A 
ATOM      4  C   UNL     1      -0.684   0.077   0.000  0.00  0.00    +0.000 A 
ATOM      5  C   UNL     1      -0.684   0.902   0.000  0.00  0.00    +0.000 A 
ATOM      6  C   UNL     1       0.031   1.315   0.000  0.00  0.00    +0.000 A 
ATOM      7  N   UNL     1       0.031  -0.335   0.000  0.00  0.00    +0.000 NA
ATOM      8  N   UNL     1       0.745   0.902   0.000  0.00  0.00    +0.000 NA
ENDROOT
BRANCH   2  12
ATOM      9  C   UNL     1      -0.684   3.377   0.000  0.00  0.00    +0.000 A 
ATOM     10  C   UNL     1      -2.897   3.632   0.000  0.00  0.00    +0.000 A 
ATOM     11  C   UNL     1      -2.113   2.552   0.000  0.00  0.00    +0.000 A 
ATOM     12  C   UNL     1      -0.684   2.552   0.000  0.00  0.00    +0.000 A 
ATOM     13  C   UNL     1      -1.398   3.790   0.000  0.00  0.00    +0.000 A 
ATOM     14  C   UNL     1      -2.113   3.377   0.000  0.00  0.00    +0.000 A 
ATOM     15  C   UNL     1      -3.152   4.417   0.000  0.00  0.00    +0.000 C 
ATOM     16  N   UNL     1      -3.382   2.965   0.000  0.00  0.00    +0.000 NA
ATOM     17  N   UNL     1      -2.897   2.297   0.000  0.00  0.00    +0.000 NA
ATOM     18  C   UNL     1      -1.398   2.140   0.000  0.00  0.00    +0.000 A 
ENDBRANCH   2  12
BRANCH   1  19
ATOM     19  C   UNL     1       1.460  -1.160   0.000  0.00  0.00    +0.000 A 
ATOM     20  C   UNL     1       2.174  -1.573   0.000  0.00  0.00    +0.000 A 
ATOM     21  C   UNL     1       1.460  -2.810   0.000  0.00  0.00    +0.000 A 
ATOM     22  C   UNL     1       0.745  -2.398   0.000  0.00  0.00    +0.000 A 
ATOM     23  C   UNL     1       0.745  -1.573   0.000  0.00  0.00    +0.000 A 
ATOM     24  C   UNL     1       2.174  -2.398   0.000  0.00  0.00    +0.000 A 
BRANCH  21  26
ATOM     25  C   UNL     1       2.174  -4.048   0.000  0.00  0.00    +0.000 C 
ATOM     26  O   UNL     1       1.460  -3.635   0.000  0.00  0.00    +0.000 OA
ENDBRANCH  21  26
BRANCH  22  28
ATOM     27  C   UNL     1      -0.684  -2.398   0.000  0.00  0.00    +0.000 C 
ATOM     28  O   UNL     1       0.031  -2.810   0.000  0.00  0.00    +0.000 OA
ENDBRANCH  22  28
BRANCH  24  29
ATOM     29  O   UNL     1       2.889  -2.810   0.000  0.00  0.00    +0.000 OA
ATOM     30  C   UNL     1       2.889  -3.635   0.000  0.00  0.00    +0.000 C 
ENDBRANCH  24  29
ENDBRANCH   1  19
TORSDOF 5
