REMARK  Name = SB1
REMARK  0 active torsions:
REMARK  status: ('A' for Active; 'I' for Inactive)
REMARK                            x       y       z     vdW  Elec       q    Type
REMARK                         _______ _______ _______ _____ _____    ______ ____
ROOT
ATOM      1  N   UNL     1      -2.339   0.514   0.000  0.00  0.00    +0.000 N 
ATOM      2  C   UNL     1      -1.862   1.280   0.000  0.00  0.00    +0.000 C 
ATOM      3  O   UNL     1      -1.055   1.106   0.000  0.00  0.00    +0.000 OA
ATOM      4  C   UNL     1      -1.971   2.098   0.000  0.00  0.00    +0.000 C 
ATOM      5  O   UNL     1      -2.696   2.490   0.000  0.00  0.00    +0.000 OA
ATOM      6  C   UNL     1      -1.227   2.454   0.000  0.00  0.00    +0.000 C 
ATOM      7  C   UNL     1      -0.658   1.857   0.000  0.00  0.00    +0.000 C 
ATOM      8  O   UNL     1       0.238   1.748   0.000  0.00  0.00    +0.000 OA
ATOM      9  C   UNL     1       0.595   1.004   0.000  0.00  0.00    +0.000 C 
ATOM     10  O   UNL     1       0.129   0.323   0.000  0.00  0.00    +0.000 OA
ATOM     11  C   UNL     1       1.417   0.940   0.000  0.00  0.00    +0.000 C 
ATOM     12  C   UNL     1       1.774   0.196   0.000  0.00  0.00    +0.000 C 
ATOM     13  C   UNL     1       2.596   0.133   0.000  0.00  0.00    +0.000 C 
ATOM     14  C   UNL     1       2.952  -0.611   0.000  0.00  0.00    +0.000 C 
ATOM     15  C   UNL     1       2.486  -1.292   0.000  0.00  0.00    +0.000 C 
ATOM     16  C   UNL     1       2.842  -2.036   0.000  0.00  0.00    +0.000 C 
ATOM     17  C   UNL     1       2.376  -2.717   0.000  0.00  0.00    +0.000 C 
ATOM     18  C   UNL     1       1.554  -2.653   0.000  0.00  0.00    +0.000 C 
ATOM     19  C   UNL     1       1.197  -1.909   0.000  0.00  0.00    +0.000 C 
ATOM     20  C   UNL     1       0.375  -1.845   0.000  0.00  0.00    +0.000 C 
ATOM     21  C   UNL     1       0.018  -1.101   0.000  0.00  0.00    +0.000 C 
ATOM     22  O   UNL     1      -0.804  -1.038   0.000  0.00  0.00    +0.000 OA
ATOM     23  C   UNL     1      -1.160  -0.294   0.000  0.00  0.00    +0.000 C 
ATOM     24  O   UNL     1      -0.694   0.387   0.000  0.00  0.00    +0.000 OA
ATOM     25  C   UNL     1      -1.983  -0.230   0.000  0.00  0.00    +0.000 C 
ATOM     26  C   UNL     1      -2.449  -0.911   0.000  0.00  0.00    +0.000 C 
ATOM     27  C   UNL     1      -3.272  -0.847   0.000  0.00  0.00    +0.000 C 
ATOM     28  C   UNL     1      -3.628  -0.103   0.000  0.00  0.00    +0.000 C 
ATOM     29  C   UNL     1      -3.162   0.577   0.000  0.00  0.00    +0.000 C 
ATOM     30  C   UNL     1      -1.495   3.234   0.000  0.00  0.00    +0.000 C 
ATOM     31  C   UNL     1      -0.698   3.088   0.000  0.00  0.00    +0.000 C 
ENDROOT
TORSDOF 0
