REMARK  Name = SB4
REMARK  3 active torsions:
REMARK  status: ('A' for Active; 'I' for Inactive)
REMARK    1  A    between atoms: C_6  and  N_21
REMARK    2  A    between atoms: C_12  and  C_24
REMARK    3  A    between atoms: C_15  and  C_25
REMARK                            x       y       z     vdW  Elec       q    Type
REMARK                         _______ _______ _______ _____ _____    ______ ____
ROOT
ATOM      1  N   UNL     1       1.012   0.189   0.000  0.00  0.00    +0.000 N 
ATOM      2  C   UNL     1       1.679  -0.296   0.000  0.00  0.00    +0.000 A 
ATOM      3  N   UNL     1       1.424  -1.081   0.000  0.00  0.00    +0.000 NA
ATOM      4  C   UNL     1       0.599  -1.081   0.000  0.00  0.00    +0.000 A 
ATOM      5  C   UNL     1       0.344  -0.296   0.000  0.00  0.00    +0.000 A 
ENDROOT
BRANCH   4  11
ATOM      6  C   UNL     1       0.450  -2.502   0.000  0.00  0.00    +0.000 A 
ATOM      7  C   UNL     1      -0.035  -3.169   0.000  0.00  0.00    +0.000 A 
ATOM      8  C   UNL     1      -0.856  -3.083   0.000  0.00  0.00    +0.000 A 
ATOM      9  C   UNL     1      -1.191  -2.329   0.000  0.00  0.00    +0.000 A 
ATOM     10  C   UNL     1      -0.706  -1.662   0.000  0.00  0.00    +0.000 A 
ATOM     11  C   UNL     1       0.114  -1.748   0.000  0.00  0.00    +0.000 A 
ATOM     12  F   UNL     1      -1.340  -3.750   0.000  0.00  0.00    +0.000 F 
ENDBRANCH   4  11
BRANCH   5  14
ATOM     13  C   UNL     1      -0.612   0.766   0.000  0.00  0.00    +0.000 A 
ATOM     14  C   UNL     1      -0.440  -0.041   0.000  0.00  0.00    +0.000 A 
ATOM     15  N   UNL     1      -1.053  -0.593   0.000  0.00  0.00    +0.000 NA
ATOM     16  C   UNL     1      -1.838  -0.338   0.000  0.00  0.00    +0.000 A 
ATOM     17  N   UNL     1      -2.010   0.469   0.000  0.00  0.00    +0.000 NA
ATOM     18  C   UNL     1      -1.396   1.021   0.000  0.00  0.00    +0.000 A 
ATOM     19  N   UNL     1      -2.451  -0.890   0.000  0.00  0.00    +0.000 NA
ENDBRANCH   5  14
BRANCH   1  25
ATOM     20  C   UNL     1       0.297   1.427   0.000  0.00  0.00    +0.000 C 
ATOM     21  C   UNL     1       0.297   2.252   0.000  0.00  0.00    +0.000 C 
ATOM     22  N   UNL     1       1.012   2.664   0.000  0.00  0.00    +0.000 NA
ATOM     23  C   UNL     1       1.726   2.252   0.000  0.00  0.00    +0.000 C 
ATOM     24  C   UNL     1       1.726   1.427   0.000  0.00  0.00    +0.000 C 
ATOM     25  C   UNL     1       1.012   1.014   0.000  0.00  0.00    +0.000 C 
ENDBRANCH   1  25
TORSDOF 3
