REMARK  Name = SB5
REMARK  4 active torsions:
REMARK  status: ('A' for Active; 'I' for Inactive)
REMARK    1  A    between atoms: C_6  and  C_17
REMARK    2  A    between atoms: C_12  and  C_16
REMARK    3  A    between atoms: N_15  and  C_20
REMARK    4  A    between atoms: C_20  and  C_21
REMARK                            x       y       z     vdW  Elec       q    Type
REMARK                         _______ _______ _______ _____ _____    ______ ____
ROOT
ATOM      1  N   UNL     1      -0.017  -0.971   0.000  0.00  0.00    +0.000 N 
ATOM      2  C   UNL     1       0.069  -0.150   0.000  0.00  0.00    +0.000 A 
ATOM      3  C   UNL     1       0.876   0.021   0.000  0.00  0.00    +0.000 A 
ATOM      4  N   UNL     1       1.289  -0.693   0.000  0.00  0.00    +0.000 NA
ATOM      5  C   UNL     1       0.737  -1.306   0.000  0.00  0.00    +0.000 A 
ENDROOT
BRANCH   3  11
ATOM      6  F   UNL     1       2.218   3.036   0.000  0.00  0.00    +0.000 F 
ATOM      7  C   UNL     1       1.062   2.196   0.000  0.00  0.00    +0.000 A 
ATOM      8  C   UNL     1       1.883   2.282   0.000  0.00  0.00    +0.000 A 
ATOM      9  C   UNL     1       2.368   1.615   0.000  0.00  0.00    +0.000 A 
ATOM     10  C   UNL     1       2.032   0.861   0.000  0.00  0.00    +0.000 A 
ATOM     11  C   UNL     1       1.212   0.775   0.000  0.00  0.00    +0.000 A 
ATOM     12  C   UNL     1       0.727   1.442   0.000  0.00  0.00    +0.000 A 
ENDBRANCH   3  11
BRANCH   2  17
ATOM     13  C   UNL     1      -1.942   0.699   0.000  0.00  0.00    +0.000 A 
ATOM     14  N   UNL     1      -1.770   1.506   0.000  0.00  0.00    +0.000 NA
ATOM     15  C   UNL     1      -0.985   1.761   0.000  0.00  0.00    +0.000 A 
ATOM     16  N   UNL     1      -0.372   1.209   0.000  0.00  0.00    +0.000 NA
ATOM     17  C   UNL     1      -0.544   0.402   0.000  0.00  0.00    +0.000 A 
ATOM     18  C   UNL     1      -1.329   0.147   0.000  0.00  0.00    +0.000 A 
ATOM     19  N   UNL     1      -0.814   2.568   0.000  0.00  0.00    +0.000 NA
ENDBRANCH   2  17
BRANCH   1  20
ATOM     20  C   UNL     1      -0.732  -1.383   0.000  0.00  0.00    +0.000 C 
BRANCH  20  21
ATOM     21  C   UNL     1      -0.732  -2.208   0.000  0.00  0.00    +0.000 C 
ATOM     22  C   UNL     1      -0.319  -2.923   0.000  0.00  0.00    +0.000 C 
ATOM     23  C   UNL     1      -1.144  -2.923   0.000  0.00  0.00    +0.000 C 
ENDBRANCH  20  21
ENDBRANCH   1  20
TORSDOF 4
