REMARK  Name = SB6
REMARK  4 active torsions:
REMARK  status: ('A' for Active; 'I' for Inactive)
REMARK    1  A    between atoms: C_6  and  C_16
REMARK    2  A    between atoms: C_12  and  C_15
REMARK    3  A    between atoms: N_14  and  C_19
REMARK    4  A    between atoms: C_19  and  C_20
REMARK                            x       y       z     vdW  Elec       q    Type
REMARK                         _______ _______ _______ _____ _____    ______ ____
ROOT
ATOM      1  N   UNL     1      -0.047  -0.853   0.000  0.00  0.00    +0.000 N 
ATOM      2  C   UNL     1       0.039  -0.032   0.000  0.00  0.00    +0.000 A 
ATOM      3  C   UNL     1       0.846   0.139   0.000  0.00  0.00    +0.000 A 
ATOM      4  N   UNL     1       1.258  -0.575   0.000  0.00  0.00    +0.000 NA
ATOM      5  C   UNL     1       0.706  -1.188   0.000  0.00  0.00    +0.000 A 
ENDROOT
BRANCH   3  11
ATOM      6  F   UNL     1       2.188   3.154   0.000  0.00  0.00    +0.000 F 
ATOM      7  C   UNL     1       1.032   2.314   0.000  0.00  0.00    +0.000 A 
ATOM      8  C   UNL     1       1.853   2.401   0.000  0.00  0.00    +0.000 A 
ATOM      9  C   UNL     1       2.337   1.733   0.000  0.00  0.00    +0.000 A 
ATOM     10  C   UNL     1       2.002   0.979   0.000  0.00  0.00    +0.000 A 
ATOM     11  C   UNL     1       1.181   0.893   0.000  0.00  0.00    +0.000 A 
ATOM     12  C   UNL     1       0.697   1.561   0.000  0.00  0.00    +0.000 A 
ENDBRANCH   3  11
BRANCH   2  17
ATOM     13  C   UNL     1      -1.972   0.817   0.000  0.00  0.00    +0.000 A 
ATOM     14  N   UNL     1      -1.800   1.624   0.000  0.00  0.00    +0.000 NA
ATOM     15  C   UNL     1      -1.016   1.879   0.000  0.00  0.00    +0.000 A 
ATOM     16  C   UNL     1      -0.403   1.327   0.000  0.00  0.00    +0.000 A 
ATOM     17  C   UNL     1      -0.574   0.520   0.000  0.00  0.00    +0.000 A 
ATOM     18  C   UNL     1      -1.359   0.265   0.000  0.00  0.00    +0.000 A 
ENDBRANCH   2  17
BRANCH   1  19
ATOM     19  C   UNL     1      -0.762  -1.265   0.000  0.00  0.00    +0.000 C 
BRANCH  19  20
ATOM     20  C   UNL     1      -0.762  -2.090   0.000  0.00  0.00    +0.000 C 
ATOM     21  C   UNL     1      -0.349  -2.804   0.000  0.00  0.00    +0.000 C 
ATOM     22  C   UNL     1      -1.174  -2.804   0.000  0.00  0.00    +0.000 C 
ENDBRANCH  19  20
ENDBRANCH   1  19
TORSDOF 4
