REMARK  Name = SB7
REMARK  5 active torsions:
REMARK  status: ('A' for Active; 'I' for Inactive)
REMARK    1  A    between atoms: C_3  and  C_7
REMARK    2  A    between atoms: C_7  and  C_8
REMARK    3  A    between atoms: C_8  and  C_9
REMARK    4  A    between atoms: C_9  and  N_10
REMARK    5  A    between atoms: N_10  and  C_12
REMARK                            x       y       z     vdW  Elec       q    Type
REMARK                         _______ _______ _______ _____ _____    ______ ____
ROOT
ATOM      1  C   UNL     1      -0.464  -0.446   0.000  0.00  0.00    +0.000 C 
ENDROOT
BRANCH   1   4
ATOM      2  C   UNL     1      -1.893   1.204   0.000  0.00  0.00    +0.000 A 
ATOM      3  C   UNL     1      -1.178   0.792   0.000  0.00  0.00    +0.000 A 
ATOM      4  C   UNL     1      -1.178  -0.033   0.000  0.00  0.00    +0.000 A 
ATOM      5  C   UNL     1      -1.893  -0.446   0.000  0.00  0.00    +0.000 A 
ATOM      6  C   UNL     1      -2.607  -0.033   0.000  0.00  0.00    +0.000 A 
ATOM      7  C   UNL     1      -2.607   0.792   0.000  0.00  0.00    +0.000 A 
ENDBRANCH   1   4
BRANCH   1   8
ATOM      8  C   UNL     1       0.251  -0.033   0.000  0.00  0.00    +0.000 C 
BRANCH   8   9
ATOM      9  C   UNL     1       0.965  -0.446   0.000  0.00  0.00    +0.000 C 
BRANCH   9  10
ATOM     10  N   UNL     1       1.680  -0.033   0.000  0.00  0.00    +0.000 NA
ATOM     11  O   UNL     1       1.680   0.792   0.000  0.00  0.00    +0.000 OA
BRANCH  10  12
ATOM     12  C   UNL     1       2.394  -0.446   0.000  0.00  0.00    +0.000 C 
ATOM     13  O   UNL     1       3.109  -0.033   0.000  0.00  0.00    +0.000 OA
ENDBRANCH  10  12
ENDBRANCH   9  10
ENDBRANCH   8   9
ENDBRANCH   1   8
TORSDOF 5
