REMARK  Name = SB8
REMARK  6 active torsions:
REMARK  status: ('A' for Active; 'I' for Inactive)
REMARK    1  A    between atoms: C_2  and  C_7
REMARK    2  A    between atoms: C_4  and  O_15
REMARK    3  A    between atoms: C_7  and  C_9
REMARK    4  A    between atoms: O_15  and  C_16
REMARK    5  A    between atoms: C_16  and  C_17
REMARK    6  A    between atoms: C_17  and  N_18
REMARK                            x       y       z     vdW  Elec       q    Type
REMARK                         _______ _______ _______ _____ _____    ______ ____
ROOT
ATOM      1  C   UNL     1      -1.391  -0.279   0.000  0.00  0.00    +0.000 A 
ATOM      2  C   UNL     1      -0.677   0.134   0.000  0.00  0.00    +0.000 A 
ATOM      3  C   UNL     1       0.038  -0.279   0.000  0.00  0.00    +0.000 A 
ATOM      4  C   UNL     1       0.038  -1.104   0.000  0.00  0.00    +0.000 A 
ATOM      5  C   UNL     1      -0.677  -1.516   0.000  0.00  0.00    +0.000 A 
ATOM      6  C   UNL     1      -1.391  -1.104   0.000  0.00  0.00    +0.000 A 
ENDROOT
BRANCH   2   7
ATOM      7  C   UNL     1      -0.677   0.959   0.000  0.00  0.00    +0.000 C 
ATOM      8  O   UNL     1       0.038   1.371   0.000  0.00  0.00    +0.000 OA
BRANCH   7   9
ATOM      9  C   UNL     1      -1.391   1.371   0.000  0.00  0.00    +0.000 A 
ATOM     10  C   UNL     1      -2.106   0.959   0.000  0.00  0.00    +0.000 A 
ATOM     11  C   UNL     1      -2.820   1.371   0.000  0.00  0.00    +0.000 A 
ATOM     12  C   UNL     1      -2.820   2.196   0.000  0.00  0.00    +0.000 A 
ATOM     13  C   UNL     1      -2.106   2.609   0.000  0.00  0.00    +0.000 A 
ATOM     14  C   UNL     1      -1.391   2.196   0.000  0.00  0.00    +0.000 A 
ENDBRANCH   7   9
ENDBRANCH   2   7
BRANCH   4  15
ATOM     15  O   UNL     1       0.752  -1.516   0.000  0.00  0.00    +0.000 OA
BRANCH  15  16
ATOM     16  C   UNL     1       1.467  -1.104   0.000  0.00  0.00    +0.000 C 
BRANCH  16  17
ATOM     17  C   UNL     1       2.181  -1.516   0.000  0.00  0.00    +0.000 C 
BRANCH  17  18
ATOM     18  N   UNL     1       2.896  -1.104   0.000  0.00  0.00    +0.000 N 
ATOM     19  O   UNL     1       2.896  -0.279   0.000  0.00  0.00    +0.000 OA
ATOM     20  C   UNL     1       3.610  -1.516   0.000  0.00  0.00    +0.000 C 
ATOM     21  O   UNL     1       4.324  -1.104   0.000  0.00  0.00    +0.000 OA
ENDBRANCH  17  18
ENDBRANCH  16  17
ENDBRANCH  15  16
ENDBRANCH   4  15
TORSDOF 6
