REMARK  Name = SB9
REMARK  4 active torsions:
REMARK  status: ('A' for Active; 'I' for Inactive)
REMARK    1  A    between atoms: C_3  and  C_8
REMARK    2  A    between atoms: C_8  and  C_9
REMARK    3  A    between atoms: C_9  and  C_10
REMARK    4  A    between atoms: C_10  and  N_11
REMARK                            x       y       z     vdW  Elec       q    Type
REMARK                         _______ _______ _______ _____ _____    ______ ____
ROOT
ATOM      1  C   UNL     1      -1.274   0.938   0.000  0.00  0.00    +0.000 A 
ATOM      2  N   UNL     1      -0.560   0.526   0.000  0.00  0.00    +0.000 NA
ATOM      3  C   UNL     1      -0.560  -0.299   0.000  0.00  0.00    +0.000 A 
ATOM      4  C   UNL     1      -1.274  -0.712   0.000  0.00  0.00    +0.000 A 
ATOM      5  C   UNL     1      -1.989  -0.299   0.000  0.00  0.00    +0.000 A 
ATOM      6  C   UNL     1      -1.989   0.526   0.000  0.00  0.00    +0.000 A 
ATOM      7  C   UNL     1      -1.274   1.763   0.000  0.00  0.00    +0.000 C 
ENDROOT
BRANCH   3   8
ATOM      8  C   UNL     1       0.155  -0.712   0.000  0.00  0.00    +0.000 C 
BRANCH   8   9
ATOM      9  C   UNL     1       0.869  -0.299   0.000  0.00  0.00    +0.000 C 
BRANCH   9  10
ATOM     10  C   UNL     1       1.584  -0.712   0.000  0.00  0.00    +0.000 C 
BRANCH  10  11
ATOM     11  N   UNL     1       2.298  -0.299   0.000  0.00  0.00    +0.000 N 
ATOM     12  O   UNL     1       2.298   0.526   0.000  0.00  0.00    +0.000 OA
ATOM     13  C   UNL     1       3.013  -0.712   0.000  0.00  0.00    +0.000 C 
ATOM     14  O   UNL     1       3.727  -0.299   0.000  0.00  0.00    +0.000 OA
ENDBRANCH  10  11
ENDBRANCH   9  10
ENDBRANCH   8   9
ENDBRANCH   3   8
TORSDOF 4
