REMARK  Name = SBA
REMARK  13 active torsions:
REMARK  status: ('A' for Active; 'I' for Inactive)
REMARK    1  A    between atoms: C_3  and  C_7
REMARK    2  A    between atoms: C_7  and  O_8
REMARK    3  A    between atoms: O_8  and  C_9
REMARK    4  A    between atoms: N_11  and  C_12
REMARK    5  A    between atoms: C_12  and  C_13
REMARK    6  A    between atoms: C_12  and  C_21
REMARK    7  A    between atoms: N_14  and  C_15
REMARK    8  A    between atoms: C_15  and  C_16
REMARK    9  A    between atoms: C_15  and  C_17
REMARK   10  A    between atoms: C_16  and  C_27
REMARK   11  A    between atoms: C_17  and  C_18
REMARK   12  A    between atoms: C_21  and  C_22
REMARK   13  A    between atoms: C_27  and  O_28
REMARK                            x       y       z     vdW  Elec       q    Type
REMARK                         _______ _______ _______ _____ _____    ______ ____
ROOT
ATOM      1  C   UNL     1      -0.598  -0.352   0.000  0.00  0.00    +0.000 C 
ENDROOT
BRANCH   1   4
ATOM      2  C   UNL     1      -2.027  -0.352   0.000  0.00  0.00    +0.000 C 
ATOM      3  O   UNL     1      -2.027  -1.177   0.000  0.00  0.00    +0.000 OA
ATOM      4  N   UNL     1      -1.312   0.060   0.000  0.00  0.00    +0.000 NA
BRANCH   2   5
ATOM      5  O   UNL     1      -2.741   0.060   0.000  0.00  0.00    +0.000 OA
BRANCH   5   6
ATOM      6  C   UNL     1      -3.456  -0.352   0.000  0.00  0.00    +0.000 C 
BRANCH   6   9
ATOM      7  C   UNL     1      -4.885   1.298   0.000  0.00  0.00    +0.000 A 
ATOM      8  C   UNL     1      -4.170   0.885   0.000  0.00  0.00    +0.000 A 
ATOM      9  C   UNL     1      -4.170   0.060   0.000  0.00  0.00    +0.000 A 
ATOM     10  C   UNL     1      -4.885  -0.352   0.000  0.00  0.00    +0.000 A 
ATOM     11  C   UNL     1      -5.599   0.060   0.000  0.00  0.00    +0.000 A 
ATOM     12  C   UNL     1      -5.599   0.885   0.000  0.00  0.00    +0.000 A 
ENDBRANCH   6   9
ENDBRANCH   5   6
ENDBRANCH   2   5
ENDBRANCH   1   4
BRANCH   1  13
ATOM     13  C   UNL     1       0.117   0.060   0.000  0.00  0.00    +0.000 C 
ATOM     14  N   UNL     1       0.831  -0.352   0.000  0.00  0.00    +0.000 NA
ATOM     15  O   UNL     1       0.117   0.885   0.000  0.00  0.00    +0.000 OA
BRANCH  14  16
ATOM     16  C   UNL     1       1.545   0.060   0.000  0.00  0.00    +0.000 C 
BRANCH  16  17
ATOM     17  C   UNL     1       2.260  -0.352   0.000  0.00  0.00    +0.000 C 
ATOM     18  O   UNL     1       2.260  -1.177   0.000  0.00  0.00    +0.000 OA
BRANCH  17  19
ATOM     19  C   UNL     1       2.974   0.060   0.000  0.00  0.00    +0.000 C 
BRANCH  19  20
ATOM     20  O   UNL     1       3.689  -0.352   0.000  0.00  0.00    +0.000 OA
ATOM     21  C   UNL     1       4.403   0.060   0.000  0.00  0.00    +0.000 C 
ENDBRANCH  19  20
ENDBRANCH  17  19
ENDBRANCH  16  17
BRANCH  16  22
ATOM     22  C   UNL     1       1.545   0.885   0.000  0.00  0.00    +0.000 C 
BRANCH  22  23
ATOM     23  C   UNL     1       2.260   1.298   0.000  0.00  0.00    +0.000 C 
ATOM     24  C   UNL     1       2.260   2.123   0.000  0.00  0.00    +0.000 C 
ATOM     25  C   UNL     1       2.974   0.885   0.000  0.00  0.00    +0.000 C 
ENDBRANCH  22  23
ENDBRANCH  16  22
ENDBRANCH  14  16
ENDBRANCH   1  13
BRANCH   1  26
ATOM     26  C   UNL     1      -0.598  -1.177   0.000  0.00  0.00    +0.000 C 
BRANCH  26  27
ATOM     27  C   UNL     1       0.117  -1.590   0.000  0.00  0.00    +0.000 C 
ATOM     28  C   UNL     1       0.831  -1.177   0.000  0.00  0.00    +0.000 C 
ATOM     29  C   UNL     1       0.117  -2.415   0.000  0.00  0.00    +0.000 C 
ENDBRANCH  26  27
ENDBRANCH   1  26
TORSDOF 13
