REMARK  Name = SBB
REMARK  6 active torsions:
REMARK  status: ('A' for Active; 'I' for Inactive)
REMARK    1  A    between atoms: C_3  and  S_14
REMARK    2  A    between atoms: C_6  and  C_7
REMARK    3  A    between atoms: N_9  and  C_10
REMARK    4  A    between atoms: C_10  and  C_11
REMARK    5  A    between atoms: C_11  and  C_12
REMARK    6  A    between atoms: C_11  and  C_25
REMARK                            x       y       z     vdW  Elec       q    Type
REMARK                         _______ _______ _______ _____ _____    ______ ____
ROOT
ATOM      1  C   UNL     1      -1.184   0.061   0.000  0.00  0.00    +0.000 C 
ATOM      2  O   UNL     1      -1.596  -0.654   0.000  0.00  0.00    +0.000 OA
ATOM      3  N   UNL     1      -0.359   0.061   0.000  0.00  0.00    +0.000 NA
ENDROOT
BRANCH   1   9
ATOM      4  C   UNL     1      -2.421   0.775   0.000  0.00  0.00    +0.000 A 
ATOM      5  C   UNL     1      -2.834   1.490   0.000  0.00  0.00    +0.000 A 
ATOM      6  C   UNL     1      -2.421   2.204   0.000  0.00  0.00    +0.000 A 
ATOM      7  C   UNL     1      -1.596   2.204   0.000  0.00  0.00    +0.000 A 
ATOM      8  C   UNL     1      -1.184   1.490   0.000  0.00  0.00    +0.000 A 
ATOM      9  C   UNL     1      -1.596   0.775   0.000  0.00  0.00    +0.000 A 
BRANCH   6  10
ATOM     10  S   UNL     1      -2.834   2.919   0.000  0.00  0.00    +0.000 S 
ATOM     11  N   UNL     1      -3.246   3.633   0.000  0.00  0.00    +0.000 NA
ATOM     12  O   UNL     1      -3.548   2.506   0.000  0.00  0.00    +0.000 OA
ATOM     13  O   UNL     1      -2.119   3.331   0.000  0.00  0.00    +0.000 OA
ENDBRANCH   6  10
ENDBRANCH   1   9
BRANCH   3  14
ATOM     14  C   UNL     1       0.054  -0.654   0.000  0.00  0.00    +0.000 C 
BRANCH  14  15
ATOM     15  C   UNL     1       0.879  -0.654   0.000  0.00  0.00    +0.000 C 
BRANCH  15  23
ATOM     16  C   UNL     1       3.336  -2.254   0.000  0.00  0.00    +0.000 A 
ATOM     17  C   UNL     1       3.422  -3.075   0.000  0.00  0.00    +0.000 A 
ATOM     18  C   UNL     1       2.529  -2.083   0.000  0.00  0.00    +0.000 A 
ATOM     19  N   UNL     1       2.668  -3.410   0.000  0.00  0.00    +0.000 NA
ATOM     20  C   UNL     1       2.116  -2.797   0.000  0.00  0.00    +0.000 A 
ATOM     21  C   UNL     1       2.116  -1.368   0.000  0.00  0.00    +0.000 A 
ATOM     22  C   UNL     1       1.291  -2.797   0.000  0.00  0.00    +0.000 A 
ATOM     23  C   UNL     1       1.291  -1.368   0.000  0.00  0.00    +0.000 A 
ATOM     24  C   UNL     1       0.879  -2.083   0.000  0.00  0.00    +0.000 A 
ENDBRANCH  15  23
BRANCH  15  25
ATOM     25  C   UNL     1       1.291   0.061   0.000  0.00  0.00    +0.000 C 
ATOM     26  C   UNL     1       2.116   0.061   0.000  0.00  0.00    +0.000 C 
ENDBRANCH  15  25
ENDBRANCH  14  15
ENDBRANCH   3  14
TORSDOF 6
