REMARK  Name = SBN
REMARK  3 active torsions:
REMARK  status: ('A' for Active; 'I' for Inactive)
REMARK    1  A    between atoms: C_3  and  C_17
REMARK    2  A    between atoms: C_4  and  S_7
REMARK    3  A    between atoms: S_7  and  C_10
REMARK                            x       y       z     vdW  Elec       q    Type
REMARK                         _______ _______ _______ _____ _____    ______ ____
ROOT
ATOM      1  S   UNL     1      -0.076   0.060   0.000  0.00  0.00    +0.000 S 
ATOM      2  O   UNL     1      -0.901   0.060   0.000  0.00  0.00    +0.000 OA
ATOM      3  O   UNL     1       0.749   0.060   0.000  0.00  0.00    +0.000 OA
ENDROOT
BRANCH   1   4
ATOM      4  C   UNL     1      -0.076  -0.765   0.000  0.00  0.00    +0.000 A 
ATOM      5  C   UNL     1       0.638  -1.177   0.000  0.00  0.00    +0.000 A 
ATOM      6  C   UNL     1       0.638  -2.002   0.000  0.00  0.00    +0.000 A 
ATOM      7  C   UNL     1      -0.076  -2.415   0.000  0.00  0.00    +0.000 A 
ATOM      8  C   UNL     1      -0.791  -2.002   0.000  0.00  0.00    +0.000 A 
ATOM      9  C   UNL     1      -0.791  -1.177   0.000  0.00  0.00    +0.000 A 
ATOM     10  C   UNL     1       1.352  -2.415   0.000  0.00  0.00    +0.000 C 
ATOM     11  C   UNL     1      -1.506  -2.415   0.000  0.00  0.00    +0.000 C 
ENDBRANCH   1   4
BRANCH   1  15
ATOM     12  C   UNL     1      -0.076   2.535   0.000  0.00  0.00    +0.000 A 
ATOM     13  C   UNL     1       0.638   2.123   0.000  0.00  0.00    +0.000 A 
ATOM     14  C   UNL     1       0.638   1.298   0.000  0.00  0.00    +0.000 A 
ATOM     15  C   UNL     1      -0.076   0.885   0.000  0.00  0.00    +0.000 A 
ATOM     16  C   UNL     1      -0.791   1.298   0.000  0.00  0.00    +0.000 A 
ATOM     17  C   UNL     1      -0.791   2.123   0.000  0.00  0.00    +0.000 A 
ATOM     18  N   UNL     1       1.352   2.535   0.000  0.00  0.00    +0.000 NA
BRANCH  14  20
ATOM     19  N   UNL     1       2.067   0.472   0.000  0.00  0.00    +0.000 NA
ATOM     20  C   UNL     1       1.352   0.885   0.000  0.00  0.00    +0.000 C 
ENDBRANCH  14  20
ENDBRANCH   1  15
TORSDOF 3
