REMARK  Name = SC0
REMARK  14 active torsions:
REMARK  status: ('A' for Active; 'I' for Inactive)
REMARK    1  A    between atoms: C_2  and  C_3
REMARK    2  A    between atoms: C_3  and  C_4
REMARK    3  A    between atoms: C_4  and  C_5
REMARK    4  A    between atoms: C_5  and  C_6
REMARK    5  A    between atoms: C_7  and  C_8
REMARK    6  A    between atoms: C_8  and  C_9
REMARK    7  A    between atoms: C_9  and  P_10
REMARK    8  A    between atoms: C_9  and  P_14
REMARK    9  A    between atoms: C_9  and  C_18
REMARK   10  A    between atoms: C_18  and  C_19
REMARK   11  A    between atoms: C_20  and  C_21
REMARK   12  A    between atoms: C_21  and  C_22
REMARK   13  A    between atoms: C_22  and  C_23
REMARK   14  A    between atoms: C_23  and  C_24
REMARK                            x       y       z     vdW  Elec       q    Type
REMARK                         _______ _______ _______ _____ _____    ______ ____
ROOT
ATOM      1  C   UNL     1      -0.030   0.117   0.000  0.00  0.00    +0.000 C 
ENDROOT
BRANCH   1   2
ATOM      2  P   UNL     1      -0.443  -0.598   0.000  0.00  0.00    +0.000 P 
ATOM      3  O   UNL     1      -0.855  -1.312   0.000  0.00  0.00    +0.000 OA
ATOM      4  O   UNL     1       0.272  -1.010   0.000  0.00  0.00    +0.000 OA
ATOM      5  O   UNL     1      -1.157  -0.185   0.000  0.00  0.00    +0.000 OA
ENDBRANCH   1   2
BRANCH   1   6
ATOM      6  P   UNL     1       0.382   0.831   0.000  0.00  0.00    +0.000 P 
ATOM      7  O   UNL     1       0.795   1.546   0.000  0.00  0.00    +0.000 OA
ATOM      8  O   UNL     1       1.097   0.419   0.000  0.00  0.00    +0.000 OA
ATOM      9  O   UNL     1      -0.332   1.244   0.000  0.00  0.00    +0.000 OA
ENDBRANCH   1   6
BRANCH   1  10
ATOM     10  C   UNL     1      -0.745   0.529   0.000  0.00  0.00    +0.000 C 
BRANCH  10  12
ATOM     11  C   UNL     1      -2.174   0.529   0.000  0.00  0.00    +0.000 C 
ATOM     12  C   UNL     1      -1.459   0.117   0.000  0.00  0.00    +0.000 C 
BRANCH  11  13
ATOM     13  C   UNL     1      -2.888   0.117   0.000  0.00  0.00    +0.000 C 
BRANCH  13  14
ATOM     14  C   UNL     1      -3.603   0.529   0.000  0.00  0.00    +0.000 C 
BRANCH  14  15
ATOM     15  C   UNL     1      -4.317   0.117   0.000  0.00  0.00    +0.000 C 
BRANCH  15  17
ATOM     16  C   UNL     1      -5.746   0.117   0.000  0.00  0.00    +0.000 C 
ATOM     17  C   UNL     1      -5.032   0.529   0.000  0.00  0.00    +0.000 C 
ENDBRANCH  15  17
ENDBRANCH  14  15
ENDBRANCH  13  14
ENDBRANCH  11  13
ENDBRANCH  10  12
ENDBRANCH   1  10
BRANCH   1  18
ATOM     18  C   UNL     1       0.684  -0.296   0.000  0.00  0.00    +0.000 C 
BRANCH  18  19
ATOM     19  C   UNL     1       1.399   0.117   0.000  0.00  0.00    +0.000 C 
ATOM     20  C   UNL     1       2.113  -0.296   0.000  0.00  0.00    +0.000 C 
BRANCH  20  21
ATOM     21  C   UNL     1       2.828   0.117   0.000  0.00  0.00    +0.000 C 
BRANCH  21  22
ATOM     22  C   UNL     1       3.542  -0.296   0.000  0.00  0.00    +0.000 C 
BRANCH  22  23
ATOM     23  C   UNL     1       4.257   0.117   0.000  0.00  0.00    +0.000 C 
BRANCH  23  24
ATOM     24  C   UNL     1       4.971  -0.296   0.000  0.00  0.00    +0.000 C 
ATOM     25  C   UNL     1       5.686   0.117   0.000  0.00  0.00    +0.000 C 
ENDBRANCH  23  24
ENDBRANCH  22  23
ENDBRANCH  21  22
ENDBRANCH  20  21
ENDBRANCH  18  19
ENDBRANCH   1  18
TORSDOF 14
