REMARK  Name = SC3
REMARK  2 active torsions:
REMARK  status: ('A' for Active; 'I' for Inactive)
REMARK    1  A    between atoms: N_7  and  C_16
REMARK    2  A    between atoms: C_16  and  C_17
REMARK                            x       y       z     vdW  Elec       q    Type
REMARK                         _______ _______ _______ _____ _____    ______ ____
ROOT
ATOM      1  N   UNL     1       1.915  -0.178   0.000  0.00  0.00    +0.000 N 
ATOM      2  C   UNL     1       1.915  -1.003   0.000  0.00  0.00    +0.000 A 
ATOM      3  N   UNL     1       1.201  -1.415   0.000  0.00  0.00    +0.000 N 
ATOM      4  C   UNL     1       0.486  -1.003   0.000  0.00  0.00    +0.000 A 
ATOM      5  C   UNL     1       0.486  -0.178   0.000  0.00  0.00    +0.000 A 
ATOM      6  C   UNL     1       1.201   0.235   0.000  0.00  0.00    +0.000 A 
ATOM      7  N   UNL     1      -0.298   0.077   0.000  0.00  0.00    +0.000 N 
ATOM      8  C   UNL     1      -0.783  -0.590   0.000  0.00  0.00    +0.000 A 
ATOM      9  N   UNL     1      -0.298  -1.258   0.000  0.00  0.00    +0.000 NA
ATOM     10  N   UNL     1      -1.608  -0.590   0.000  0.00  0.00    +0.000 N 
ATOM     11  C   UNL     1      -2.021  -1.305   0.000  0.00  0.00    +0.000 C 
ATOM     12  C   UNL     1      -2.846  -1.305   0.000  0.00  0.00    +0.000 C 
ATOM     13  N   UNL     1      -3.258  -0.590   0.000  0.00  0.00    +0.000 NA
ATOM     14  C   UNL     1      -2.846   0.124   0.000  0.00  0.00    +0.000 C 
ATOM     15  C   UNL     1      -2.021   0.124   0.000  0.00  0.00    +0.000 C 
ATOM     16  O   UNL     1       1.201   1.060   0.000  0.00  0.00    +0.000 OA
ATOM     17  C   UNL     1       2.630   0.235   0.000  0.00  0.00    +0.000 C 
ATOM     18  O   UNL     1       2.630  -1.415   0.000  0.00  0.00    +0.000 OA
ATOM     19  C   UNL     1       1.201  -2.240   0.000  0.00  0.00    +0.000 C 
ENDROOT
BRANCH   7  20
ATOM     20  C   UNL     1      -0.553   0.862   0.000  0.00  0.00    +0.000 C 
BRANCH  20  21
ATOM     21  C   UNL     1      -0.001   1.475   0.000  0.00  0.00    +0.000 A 
ATOM     22  C   UNL     1      -0.256   2.260   0.000  0.00  0.00    +0.000 A 
ATOM     23  C   UNL     1       0.296   2.873   0.000  0.00  0.00    +0.000 A 
ATOM     24  C   UNL     1       1.103   2.701   0.000  0.00  0.00    +0.000 A 
ATOM     25  C   UNL     1       1.358   1.917   0.000  0.00  0.00    +0.000 A 
ATOM     26  C   UNL     1       0.806   1.304   0.000  0.00  0.00    +0.000 A 
ENDBRANCH  20  21
ENDBRANCH   7  20
TORSDOF 2
