REMARK  Name = SC8
REMARK  4 active torsions:
REMARK  status: ('A' for Active; 'I' for Inactive)
REMARK    1  A    between atoms: C_7  and  C_11
REMARK    2  A    between atoms: C_9  and  N_10
REMARK    3  A    between atoms: N_10  and  C_12
REMARK    4  A    between atoms: C_12  and  C_13
REMARK                            x       y       z     vdW  Elec       q    Type
REMARK                         _______ _______ _______ _____ _____    ______ ____
ROOT
ATOM      1  C   UNL     1      -2.260   1.379   0.000  0.00  0.00    +0.000 A 
ATOM      2  C   UNL     1      -1.476   1.124   0.000  0.00  0.00    +0.000 A 
ATOM      3  N   UNL     1      -1.476   0.299   0.000  0.00  0.00    +0.000 N 
ATOM      4  N   UNL     1      -2.260   0.044   0.000  0.00  0.00    +0.000 NA
ATOM      5  C   UNL     1      -2.745   0.711   0.000  0.00  0.00    +0.000 A 
ATOM      6  N   UNL     1      -0.761   1.536   0.000  0.00  0.00    +0.000 NA
ATOM      7  C   UNL     1      -0.047   1.124   0.000  0.00  0.00    +0.000 A 
ATOM      8  C   UNL     1      -0.047   0.299   0.000  0.00  0.00    +0.000 A 
ATOM      9  C   UNL     1      -0.761  -0.114   0.000  0.00  0.00    +0.000 A 
ENDROOT
BRANCH   7  10
ATOM     10  C   UNL     1       0.668   1.536   0.000  0.00  0.00    +0.000 A 
ATOM     11  C   UNL     1       0.668   2.361   0.000  0.00  0.00    +0.000 A 
ATOM     12  C   UNL     1       1.382   2.774   0.000  0.00  0.00    +0.000 A 
ATOM     13  C   UNL     1       2.097   2.361   0.000  0.00  0.00    +0.000 A 
ATOM     14  C   UNL     1       2.097   1.536   0.000  0.00  0.00    +0.000 A 
ATOM     15  C   UNL     1       1.382   1.124   0.000  0.00  0.00    +0.000 A 
ATOM     16 CL   UNL     1       1.382   0.299   0.000  0.00  0.00    +0.000 Cl
ATOM     17 CL   UNL     1       2.811   1.124   0.000  0.00  0.00    +0.000 Cl
ENDBRANCH   7  10
BRANCH   9  18
ATOM     18  N   UNL     1      -0.761  -0.939   0.000  0.00  0.00    +0.000 NA
BRANCH  18  19
ATOM     19  C   UNL     1      -1.476  -1.351   0.000  0.00  0.00    +0.000 C 
BRANCH  19  20
ATOM     20  C   UNL     1      -1.476  -2.176   0.000  0.00  0.00    +0.000 A 
ATOM     21  C   UNL     1      -0.761  -2.589   0.000  0.00  0.00    +0.000 A 
ATOM     22  C   UNL     1      -0.761  -3.414   0.000  0.00  0.00    +0.000 A 
ATOM     23  N   UNL     1      -1.476  -3.826   0.000  0.00  0.00    +0.000 NA
ATOM     24  C   UNL     1      -2.190  -3.414   0.000  0.00  0.00    +0.000 A 
ATOM     25  C   UNL     1      -2.190  -2.589   0.000  0.00  0.00    +0.000 A 
ENDBRANCH  19  20
ENDBRANCH  18  19
ENDBRANCH   9  18
TORSDOF 4
