REMARK  Name = SC9
REMARK  3 active torsions:
REMARK  status: ('A' for Active; 'I' for Inactive)
REMARK    1  A    between atoms: C_7  and  C_18
REMARK    2  A    between atoms: N_10  and  C_11
REMARK    3  A    between atoms: C_11  and  C_12
REMARK                            x       y       z     vdW  Elec       q    Type
REMARK                         _______ _______ _______ _____ _____    ______ ____
ROOT
ATOM      1  C   UNL     1      -1.622   1.482   0.000  0.00  0.00    +0.000 A 
ATOM      2  N   UNL     1      -0.837   1.228   0.000  0.00  0.00    +0.000 N 
ATOM      3  C   UNL     1      -0.837   0.403   0.000  0.00  0.00    +0.000 A 
ATOM      4  N   UNL     1      -1.622   0.148   0.000  0.00  0.00    +0.000 NA
ATOM      5  C   UNL     1      -2.107   0.815   0.000  0.00  0.00    +0.000 A 
ATOM      6  C   UNL     1      -0.123   1.640   0.000  0.00  0.00    +0.000 A 
ATOM      7  C   UNL     1       0.592   1.228   0.000  0.00  0.00    +0.000 A 
ATOM      8  N   UNL     1       0.592   0.403   0.000  0.00  0.00    +0.000 NA
ATOM      9  C   UNL     1      -0.123  -0.010   0.000  0.00  0.00    +0.000 A 
ATOM     10  N   UNL     1      -0.123  -0.835   0.000  0.00  0.00    +0.000 NA
ENDROOT
BRANCH   7  11
ATOM     11  C   UNL     1       1.306   1.640   0.000  0.00  0.00    +0.000 A 
ATOM     12  C   UNL     1       2.021   1.228   0.000  0.00  0.00    +0.000 A 
ATOM     13  C   UNL     1       2.735   1.640   0.000  0.00  0.00    +0.000 A 
ATOM     14  C   UNL     1       2.735   2.465   0.000  0.00  0.00    +0.000 A 
ATOM     15  C   UNL     1       2.021   2.878   0.000  0.00  0.00    +0.000 A 
ATOM     16  C   UNL     1       1.306   2.465   0.000  0.00  0.00    +0.000 A 
ATOM     17  F   UNL     1       2.021   0.403   0.000  0.00  0.00    +0.000 F 
ENDBRANCH   7  11
BRANCH  10  18
ATOM     18  C   UNL     1      -0.837  -1.247   0.000  0.00  0.00    +0.000 C 
BRANCH  18  19
ATOM     19  C   UNL     1      -0.837  -2.072   0.000  0.00  0.00    +0.000 A 
ATOM     20  C   UNL     1      -1.552  -2.485   0.000  0.00  0.00    +0.000 A 
ATOM     21  C   UNL     1      -1.552  -3.310   0.000  0.00  0.00    +0.000 A 
ATOM     22  C   UNL     1      -0.837  -3.722   0.000  0.00  0.00    +0.000 A 
ATOM     23  N   UNL     1      -0.123  -3.310   0.000  0.00  0.00    +0.000 NA
ATOM     24  C   UNL     1      -0.123  -2.485   0.000  0.00  0.00    +0.000 A 
ENDBRANCH  18  19
ENDBRANCH  10  18
TORSDOF 3
