REMARK  Name = SCE
REMARK  2 active torsions:
REMARK  status: ('A' for Active; 'I' for Inactive)
REMARK    1  A    between atoms: N_10  and  C_11
REMARK    2  A    between atoms: C_11  and  C_12
REMARK                            x       y       z     vdW  Elec       q    Type
REMARK                         _______ _______ _______ _____ _____    ______ ____
ROOT
ATOM      1  C   UNL     1      -1.266   1.875   0.000  0.00  0.00    +0.000 A 
ATOM      2  N   UNL     1      -0.482   1.621   0.000  0.00  0.00    +0.000 N 
ATOM      3  C   UNL     1      -0.482   0.796   0.000  0.00  0.00    +0.000 A 
ATOM      4  N   UNL     1      -1.266   0.541   0.000  0.00  0.00    +0.000 NA
ATOM      5  C   UNL     1      -1.751   1.208   0.000  0.00  0.00    +0.000 A 
ATOM      6  C   UNL     1       0.233   2.033   0.000  0.00  0.00    +0.000 A 
ATOM      7  C   UNL     1       0.947   1.621   0.000  0.00  0.00    +0.000 A 
ATOM      8  N   UNL     1       0.947   0.796   0.000  0.00  0.00    +0.000 NA
ATOM      9  C   UNL     1       0.233   0.383   0.000  0.00  0.00    +0.000 A 
ATOM     10  N   UNL     1       0.233  -0.442   0.000  0.00  0.00    +0.000 NA
ATOM     11  C   UNL     1      -1.521   2.660   0.000  0.00  0.00    +0.000 C 
ENDROOT
BRANCH  10  12
ATOM     12  C   UNL     1       0.947  -0.854   0.000  0.00  0.00    +0.000 C 
BRANCH  12  13
ATOM     13  C   UNL     1       0.947  -1.679   0.000  0.00  0.00    +0.000 A 
ATOM     14  C   UNL     1       1.662  -2.092   0.000  0.00  0.00    +0.000 A 
ATOM     15  C   UNL     1       1.662  -2.917   0.000  0.00  0.00    +0.000 A 
ATOM     16  N   UNL     1       0.947  -3.329   0.000  0.00  0.00    +0.000 NA
ATOM     17  C   UNL     1       0.233  -2.917   0.000  0.00  0.00    +0.000 A 
ATOM     18  C   UNL     1       0.233  -2.092   0.000  0.00  0.00    +0.000 A 
ENDBRANCH  12  13
ENDBRANCH  10  12
TORSDOF 2
