REMARK  Name = SCF
REMARK  4 active torsions:
REMARK  status: ('A' for Active; 'I' for Inactive)
REMARK    1  A    between atoms: C_7  and  C_11
REMARK    2  A    between atoms: C_9  and  N_10
REMARK    3  A    between atoms: N_10  and  C_12
REMARK    4  A    between atoms: C_12  and  C_13
REMARK                            x       y       z     vdW  Elec       q    Type
REMARK                         _______ _______ _______ _____ _____    ______ ____
ROOT
ATOM      1  C   UNL     1      -1.806   1.350   0.000  0.00  0.00    +0.000 A 
ATOM      2  C   UNL     1      -1.022   1.095   0.000  0.00  0.00    +0.000 A 
ATOM      3  N   UNL     1      -1.022   0.270   0.000  0.00  0.00    +0.000 N 
ATOM      4  N   UNL     1      -1.806   0.015   0.000  0.00  0.00    +0.000 NA
ATOM      5  C   UNL     1      -2.291   0.682   0.000  0.00  0.00    +0.000 A 
ATOM      6  N   UNL     1      -0.307   1.507   0.000  0.00  0.00    +0.000 NA
ATOM      7  C   UNL     1       0.407   1.095   0.000  0.00  0.00    +0.000 A 
ATOM      8  C   UNL     1       0.407   0.270   0.000  0.00  0.00    +0.000 A 
ATOM      9  C   UNL     1      -0.307  -0.143   0.000  0.00  0.00    +0.000 A 
ENDROOT
BRANCH   7  10
ATOM     10  C   UNL     1       1.122   1.507   0.000  0.00  0.00    +0.000 A 
ATOM     11  C   UNL     1       1.836   1.095   0.000  0.00  0.00    +0.000 A 
ATOM     12  C   UNL     1       2.551   1.507   0.000  0.00  0.00    +0.000 A 
ATOM     13  C   UNL     1       2.551   2.332   0.000  0.00  0.00    +0.000 A 
ATOM     14  C   UNL     1       1.836   2.745   0.000  0.00  0.00    +0.000 A 
ATOM     15  C   UNL     1       1.122   2.332   0.000  0.00  0.00    +0.000 A 
ATOM     16  F   UNL     1       0.407   2.745   0.000  0.00  0.00    +0.000 F 
ENDBRANCH   7  10
BRANCH   9  17
ATOM     17  N   UNL     1      -0.307  -0.968   0.000  0.00  0.00    +0.000 NA
BRANCH  17  18
ATOM     18  C   UNL     1      -1.022  -1.380   0.000  0.00  0.00    +0.000 C 
BRANCH  18  19
ATOM     19  C   UNL     1      -1.022  -2.205   0.000  0.00  0.00    +0.000 A 
ATOM     20  C   UNL     1      -0.307  -2.618   0.000  0.00  0.00    +0.000 A 
ATOM     21  C   UNL     1      -0.307  -3.443   0.000  0.00  0.00    +0.000 A 
ATOM     22  N   UNL     1      -1.022  -3.855   0.000  0.00  0.00    +0.000 NA
ATOM     23  C   UNL     1      -1.736  -3.443   0.000  0.00  0.00    +0.000 A 
ATOM     24  C   UNL     1      -1.736  -2.618   0.000  0.00  0.00    +0.000 A 
ENDBRANCH  18  19
ENDBRANCH  17  18
ENDBRANCH   9  17
TORSDOF 4
