REMARK  Name = SCJ
REMARK  4 active torsions:
REMARK  status: ('A' for Active; 'I' for Inactive)
REMARK    1  A    between atoms: C_7  and  C_11
REMARK    2  A    between atoms: C_9  and  N_10
REMARK    3  A    between atoms: N_10  and  C_12
REMARK    4  A    between atoms: C_12  and  C_13
REMARK                            x       y       z     vdW  Elec       q    Type
REMARK                         _______ _______ _______ _____ _____    ______ ____
ROOT
ATOM      1  C   UNL     1      -2.244   1.063   0.000  0.00  0.00    +0.000 A 
ATOM      2  C   UNL     1      -1.459   0.808   0.000  0.00  0.00    +0.000 A 
ATOM      3  N   UNL     1      -1.459  -0.017   0.000  0.00  0.00    +0.000 N 
ATOM      4  N   UNL     1      -2.244  -0.272   0.000  0.00  0.00    +0.000 NA
ATOM      5  C   UNL     1      -2.729   0.396   0.000  0.00  0.00    +0.000 A 
ATOM      6  N   UNL     1      -0.745   1.221   0.000  0.00  0.00    +0.000 NA
ATOM      7  C   UNL     1      -0.030   0.808   0.000  0.00  0.00    +0.000 A 
ATOM      8  C   UNL     1      -0.030  -0.017   0.000  0.00  0.00    +0.000 A 
ATOM      9  C   UNL     1      -0.745  -0.429   0.000  0.00  0.00    +0.000 A 
ATOM     10 BR   UNL     1      -2.499   1.848   0.000  0.00  0.00    +0.000 Br
ENDROOT
BRANCH   7  11
ATOM     11  C   UNL     1       0.684   1.221   0.000  0.00  0.00    +0.000 A 
ATOM     12  C   UNL     1       0.684   2.046   0.000  0.00  0.00    +0.000 A 
ATOM     13  C   UNL     1       1.399   2.458   0.000  0.00  0.00    +0.000 A 
ATOM     14  C   UNL     1       2.113   2.046   0.000  0.00  0.00    +0.000 A 
ATOM     15  C   UNL     1       2.113   1.221   0.000  0.00  0.00    +0.000 A 
ATOM     16  C   UNL     1       1.399   0.808   0.000  0.00  0.00    +0.000 A 
ENDBRANCH   7  11
BRANCH   9  17
ATOM     17  N   UNL     1      -0.745  -1.254   0.000  0.00  0.00    +0.000 NA
BRANCH  17  18
ATOM     18  C   UNL     1      -1.459  -1.667   0.000  0.00  0.00    +0.000 C 
BRANCH  18  19
ATOM     19  C   UNL     1      -1.459  -2.492   0.000  0.00  0.00    +0.000 A 
ATOM     20  C   UNL     1      -0.745  -2.904   0.000  0.00  0.00    +0.000 A 
ATOM     21  N   UNL     1      -0.745  -3.729   0.000  0.00  0.00    +0.000 NA
ATOM     22  C   UNL     1      -1.459  -4.142   0.000  0.00  0.00    +0.000 A 
ATOM     23  C   UNL     1      -2.174  -3.729   0.000  0.00  0.00    +0.000 A 
ATOM     24  C   UNL     1      -2.174  -2.904   0.000  0.00  0.00    +0.000 A 
ENDBRANCH  18  19
ENDBRANCH  17  18
ENDBRANCH   9  17
TORSDOF 4
