REMARK  Name = SCL
REMARK  3 active torsions:
REMARK  status: ('A' for Active; 'I' for Inactive)
REMARK    1  A    between atoms: C_1  and  C_7
REMARK    2  A    between atoms: C_8  and  O_13
REMARK    3  A    between atoms: N_10  and  O_13
REMARK                            x       y       z     vdW  Elec       q    Type
REMARK                         _______ _______ _______ _____ _____    ______ ____
ROOT
ATOM      1  C   UNL     1      -0.723   0.175   0.000  0.00  0.00    +0.000 A 
ATOM      2  C   UNL     1      -0.723  -0.650   0.000  0.00  0.00    +0.000 A 
ATOM      3  C   UNL     1      -1.437  -1.063   0.000  0.00  0.00    +0.000 A 
ATOM      4  C   UNL     1      -2.152  -0.650   0.000  0.00  0.00    +0.000 A 
ATOM      5  C   UNL     1      -2.152   0.175   0.000  0.00  0.00    +0.000 A 
ATOM      6  C   UNL     1      -1.437   0.587   0.000  0.00  0.00    +0.000 A 
ATOM      7  O   UNL     1      -0.008  -1.063   0.000  0.00  0.00    +0.000 OA
ENDROOT
BRANCH   1   8
ATOM      8  C   UNL     1      -0.008   0.587   0.000  0.00  0.00    +0.000 C 
ATOM      9  N   UNL     1       0.706   0.175   0.000  0.00  0.00    +0.000 NA
ATOM     10  O   UNL     1      -0.008   1.412   0.000  0.00  0.00    +0.000 OA
BRANCH   9  11
ATOM     11  O   UNL     1       1.421   0.587   0.000  0.00  0.00    +0.000 OA
BRANCH  11  12
ATOM     12  C   UNL     1       2.135   0.175   0.000  0.00  0.00    +0.000 C 
ATOM     13  C   UNL     1       2.849   0.587   0.000  0.00  0.00    +0.000 C 
ATOM     14  O   UNL     1       2.135  -0.650   0.000  0.00  0.00    +0.000 OA
ENDBRANCH  11  12
ENDBRANCH   9  11
ENDBRANCH   1   8
TORSDOF 3
