REMARK  Name = SCW
REMARK  4 active torsions:
REMARK  status: ('A' for Active; 'I' for Inactive)
REMARK    1  A    between atoms: C_7  and  C_11
REMARK    2  A    between atoms: C_9  and  N_10
REMARK    3  A    between atoms: N_10  and  C_12
REMARK    4  A    between atoms: C_12  and  C_13
REMARK                            x       y       z     vdW  Elec       q    Type
REMARK                         _______ _______ _______ _____ _____    ______ ____
ROOT
ATOM      1  C   UNL     1      -2.152   0.884   0.000  0.00  0.00    +0.000 A 
ATOM      2  N   UNL     1      -1.367   0.629   0.000  0.00  0.00    +0.000 N 
ATOM      3  C   UNL     1      -1.367  -0.196   0.000  0.00  0.00    +0.000 A 
ATOM      4  N   UNL     1      -2.152  -0.451   0.000  0.00  0.00    +0.000 NA
ATOM      5  C   UNL     1      -2.637   0.217   0.000  0.00  0.00    +0.000 A 
ATOM      6  C   UNL     1      -0.653   1.042   0.000  0.00  0.00    +0.000 A 
ATOM      7  C   UNL     1       0.062   0.629   0.000  0.00  0.00    +0.000 A 
ATOM      8  C   UNL     1       0.062  -0.196   0.000  0.00  0.00    +0.000 A 
ATOM      9  C   UNL     1      -0.653  -0.608   0.000  0.00  0.00    +0.000 A 
ATOM     10 BR   UNL     1      -2.407   1.669   0.000  0.00  0.00    +0.000 Br
ENDROOT
BRANCH   7  11
ATOM     11  C   UNL     1       0.776   1.042   0.000  0.00  0.00    +0.000 A 
ATOM     12  C   UNL     1       0.776   1.867   0.000  0.00  0.00    +0.000 A 
ATOM     13  C   UNL     1       1.491   2.280   0.000  0.00  0.00    +0.000 A 
ATOM     14  C   UNL     1       2.205   1.867   0.000  0.00  0.00    +0.000 A 
ATOM     15  C   UNL     1       2.205   1.042   0.000  0.00  0.00    +0.000 A 
ATOM     16  C   UNL     1       1.491   0.629   0.000  0.00  0.00    +0.000 A 
ENDBRANCH   7  11
BRANCH   9  17
ATOM     17  N   UNL     1      -0.653  -1.433   0.000  0.00  0.00    +0.000 NA
BRANCH  17  18
ATOM     18  C   UNL     1      -1.367  -1.845   0.000  0.00  0.00    +0.000 C 
BRANCH  18  19
ATOM     19  C   UNL     1      -1.367  -2.671   0.000  0.00  0.00    +0.000 A 
ATOM     20  C   UNL     1      -0.653  -3.083   0.000  0.00  0.00    +0.000 A 
ATOM     21  N   UNL     1      -0.653  -3.908   0.000  0.00  0.00    +0.000 NA
ATOM     22  C   UNL     1      -1.367  -4.321   0.000  0.00  0.00    +0.000 A 
ATOM     23  N   UNL     1      -2.082  -3.908   0.000  0.00  0.00    +0.000 NA
ATOM     24  C   UNL     1      -2.082  -3.083   0.000  0.00  0.00    +0.000 A 
ENDBRANCH  18  19
ENDBRANCH  17  18
ENDBRANCH   9  17
TORSDOF 4
