REMARK  Name = SCX
REMARK  5 active torsions:
REMARK  status: ('A' for Active; 'I' for Inactive)
REMARK    1  A    between atoms: C_1  and  C_24
REMARK    2  A    between atoms: C_7  and  C_11
REMARK    3  A    between atoms: C_9  and  N_10
REMARK    4  A    between atoms: N_10  and  C_12
REMARK    5  A    between atoms: C_12  and  C_13
REMARK                            x       y       z     vdW  Elec       q    Type
REMARK                         _______ _______ _______ _____ _____    ______ ____
ROOT
ATOM      1  C   UNL     1      -1.772   1.421   0.000  0.00  0.00    +0.000 A 
ATOM      2  C   UNL     1      -0.987   1.167   0.000  0.00  0.00    +0.000 A 
ATOM      3  N   UNL     1      -0.987   0.342   0.000  0.00  0.00    +0.000 N 
ATOM      4  N   UNL     1      -1.772   0.087   0.000  0.00  0.00    +0.000 NA
ATOM      5  C   UNL     1      -2.257   0.754   0.000  0.00  0.00    +0.000 A 
ATOM      6  N   UNL     1      -0.273   1.579   0.000  0.00  0.00    +0.000 NA
ATOM      7  C   UNL     1       0.442   1.167   0.000  0.00  0.00    +0.000 A 
ATOM      8  C   UNL     1       0.442   0.342   0.000  0.00  0.00    +0.000 A 
ATOM      9  C   UNL     1      -0.273  -0.071   0.000  0.00  0.00    +0.000 A 
ENDROOT
BRANCH   7  10
ATOM     10  C   UNL     1       1.156   1.579   0.000  0.00  0.00    +0.000 A 
ATOM     11  C   UNL     1       1.156   2.404   0.000  0.00  0.00    +0.000 A 
ATOM     12  C   UNL     1       1.871   2.817   0.000  0.00  0.00    +0.000 A 
ATOM     13  C   UNL     1       2.585   2.404   0.000  0.00  0.00    +0.000 A 
ATOM     14  C   UNL     1       2.585   1.579   0.000  0.00  0.00    +0.000 A 
ATOM     15  C   UNL     1       1.871   1.167   0.000  0.00  0.00    +0.000 A 
ATOM     16  F   UNL     1       0.442   2.817   0.000  0.00  0.00    +0.000 F 
ATOM     17  F   UNL     1       1.871   0.342   0.000  0.00  0.00    +0.000 F 
ENDBRANCH   7  10
BRANCH   1  18
ATOM     18  C   UNL     1      -2.027   2.206   0.000  0.00  0.00    +0.000 C 
ATOM     19  C   UNL     1      -2.834   2.378   0.000  0.00  0.00    +0.000 C 
ENDBRANCH   1  18
BRANCH   9  20
ATOM     20  N   UNL     1      -0.273  -0.896   0.000  0.00  0.00    +0.000 NA
BRANCH  20  21
ATOM     21  C   UNL     1       0.442  -1.308   0.000  0.00  0.00    +0.000 C 
BRANCH  21  22
ATOM     22  C   UNL     1       0.442  -2.134   0.000  0.00  0.00    +0.000 A 
ATOM     23  C   UNL     1       1.156  -2.546   0.000  0.00  0.00    +0.000 A 
ATOM     24  N   UNL     1       1.156  -3.371   0.000  0.00  0.00    +0.000 NA
ATOM     25  C   UNL     1       0.442  -3.784   0.000  0.00  0.00    +0.000 A 
ATOM     26  N   UNL     1      -0.273  -3.371   0.000  0.00  0.00    +0.000 NA
ATOM     27  C   UNL     1      -0.273  -2.546   0.000  0.00  0.00    +0.000 A 
ATOM     28  N   UNL     1       0.442  -4.609   0.000  0.00  0.00    +0.000 NA
ENDBRANCH  21  22
ENDBRANCH  20  21
ENDBRANCH   9  20
TORSDOF 5
