REMARK  Name = SCZ
REMARK  5 active torsions:
REMARK  status: ('A' for Active; 'I' for Inactive)
REMARK    1  A    between atoms: C_1  and  C_24
REMARK    2  A    between atoms: C_7  and  C_11
REMARK    3  A    between atoms: C_9  and  N_10
REMARK    4  A    between atoms: N_10  and  C_12
REMARK    5  A    between atoms: C_12  and  C_13
REMARK                            x       y       z     vdW  Elec       q    Type
REMARK                         _______ _______ _______ _____ _____    ______ ____
ROOT
ATOM      1  C   UNL     1      -1.277   1.052   0.000  0.00  0.00    +0.000 A 
ATOM      2  C   UNL     1      -0.492   0.797   0.000  0.00  0.00    +0.000 A 
ATOM      3  N   UNL     1      -0.492  -0.028   0.000  0.00  0.00    +0.000 N 
ATOM      4  N   UNL     1      -1.277  -0.283   0.000  0.00  0.00    +0.000 NA
ATOM      5  C   UNL     1      -1.762   0.384   0.000  0.00  0.00    +0.000 A 
ATOM      6  N   UNL     1       0.222   1.209   0.000  0.00  0.00    +0.000 NA
ATOM      7  C   UNL     1       0.937   0.797   0.000  0.00  0.00    +0.000 A 
ATOM      8  C   UNL     1       0.937  -0.028   0.000  0.00  0.00    +0.000 A 
ATOM      9  C   UNL     1       0.222  -0.441   0.000  0.00  0.00    +0.000 A 
ENDROOT
BRANCH   7  10
ATOM     10  C   UNL     1       1.651   1.209   0.000  0.00  0.00    +0.000 A 
ATOM     11  C   UNL     1       2.366   0.797   0.000  0.00  0.00    +0.000 A 
ATOM     12  C   UNL     1       3.080   1.209   0.000  0.00  0.00    +0.000 A 
ATOM     13  C   UNL     1       3.080   2.034   0.000  0.00  0.00    +0.000 A 
ATOM     14  C   UNL     1       2.366   2.447   0.000  0.00  0.00    +0.000 A 
ATOM     15  C   UNL     1       1.651   2.034   0.000  0.00  0.00    +0.000 A 
ENDBRANCH   7  10
BRANCH   1  16
ATOM     16  C   UNL     1      -1.532   1.836   0.000  0.00  0.00    +0.000 C 
ATOM     17  C   UNL     1      -2.145   2.388   0.000  0.00  0.00    +0.000 C 
ATOM     18  C   UNL     1      -1.360   2.643   0.000  0.00  0.00    +0.000 C 
ENDBRANCH   1  16
BRANCH   9  19
ATOM     19  N   UNL     1       0.222  -1.266   0.000  0.00  0.00    +0.000 NA
BRANCH  19  20
ATOM     20  C   UNL     1      -0.492  -1.678   0.000  0.00  0.00    +0.000 C 
BRANCH  20  21
ATOM     21  C   UNL     1      -0.492  -2.503   0.000  0.00  0.00    +0.000 A 
ATOM     22  C   UNL     1      -1.207  -2.916   0.000  0.00  0.00    +0.000 A 
ATOM     23  N   UNL     1      -1.207  -3.741   0.000  0.00  0.00    +0.000 NA
ATOM     24  C   UNL     1      -0.492  -4.153   0.000  0.00  0.00    +0.000 A 
ATOM     25  C   UNL     1       0.222  -3.741   0.000  0.00  0.00    +0.000 A 
ATOM     26  C   UNL     1       0.222  -2.916   0.000  0.00  0.00    +0.000 A 
ENDBRANCH  20  21
ENDBRANCH  19  20
ENDBRANCH   9  19
TORSDOF 5
