REMARK  Name = SD2
REMARK  11 active torsions:
REMARK  status: ('A' for Active; 'I' for Inactive)
REMARK    1  A    between atoms: S_2  and  C_3
REMARK    2  A    between atoms: C_3  and  C_4
REMARK    3  A    between atoms: C_4  and  C_5
REMARK    4  A    between atoms: C_5  and  C_6
REMARK    5  A    between atoms: C_5  and  N_9
REMARK    6  A    between atoms: C_10  and  C_12
REMARK    7  A    between atoms: C_17  and  C_19
REMARK    8  A    between atoms: C_19  and  N_20
REMARK    9  A    between atoms: C_19  and  C_25
REMARK   10  A    between atoms: C_21  and  C_23
REMARK   11  A    between atoms: C_25  and  C_26
REMARK                            x       y       z     vdW  Elec       q    Type
REMARK                         _______ _______ _______ _____ _____    ______ ____
ROOT
ATOM      1  C   UNL     1      -0.241   1.096   0.000  0.00  0.00    +0.000 C 
ATOM      2  C   UNL     1      -0.155   1.917   0.000  0.00  0.00    +0.000 C 
ATOM      3  C   UNL     1       0.652   2.088   0.000  0.00  0.00    +0.000 C 
ATOM      4  C   UNL     1       1.065   1.374   0.000  0.00  0.00    +0.000 C 
ATOM      5  N   UNL     1       0.513   0.761   0.000  0.00  0.00    +0.000 N 
ATOM      6  C   UNL     1       0.684  -0.046   0.000  0.00  0.00    +0.000 C 
ATOM      7  O   UNL     1       0.071  -0.598   0.000  0.00  0.00    +0.000 OA
ENDROOT
BRANCH   1   9
ATOM      8  N   UNL     1      -1.670   1.096   0.000  0.00  0.00    +0.000 NA
ATOM      9  C   UNL     1      -0.955   0.684   0.000  0.00  0.00    +0.000 C 
ATOM     10  O   UNL     1      -0.955  -0.141   0.000  0.00  0.00    +0.000 OA
BRANCH   8  11
ATOM     11  C   UNL     1      -2.384   0.684   0.000  0.00  0.00    +0.000 C 
BRANCH  11  12
ATOM     12  C   UNL     1      -2.384  -0.141   0.000  0.00  0.00    +0.000 C 
ATOM     13  O   UNL     1      -1.670  -0.554   0.000  0.00  0.00    +0.000 OA
ATOM     14  N   UNL     1      -3.099  -0.554   0.000  0.00  0.00    +0.000 NA
ENDBRANCH  11  12
BRANCH  11  15
ATOM     15  C   UNL     1      -3.099   1.096   0.000  0.00  0.00    +0.000 C 
BRANCH  15  16
ATOM     16  C   UNL     1      -3.813   0.684   0.000  0.00  0.00    +0.000 C 
BRANCH  16  18
ATOM     17  C   UNL     1      -5.242   0.684   0.000  0.00  0.00    +0.000 C 
ATOM     18  S   UNL     1      -4.528   1.096   0.000  0.00  0.00    +0.000 S 
ENDBRANCH  16  18
ENDBRANCH  15  16
ENDBRANCH  11  15
ENDBRANCH   8  11
ENDBRANCH   1   9
BRANCH   6  19
ATOM     19  C   UNL     1       1.469  -0.301   0.000  0.00  0.00    +0.000 C 
BRANCH  19  20
ATOM     20  N   UNL     1       1.641  -1.108   0.000  0.00  0.00    +0.000 NA
ATOM     21  C   UNL     1       1.027  -1.660   0.000  0.00  0.00    +0.000 C 
ATOM     22  O   UNL     1       0.243  -1.405   0.000  0.00  0.00    +0.000 OA
BRANCH  21  23
ATOM     23  C   UNL     1       1.199  -2.467   0.000  0.00  0.00    +0.000 C 
ATOM     24  S   UNL     1       0.586  -3.019   0.000  0.00  0.00    +0.000 S 
ENDBRANCH  21  23
ENDBRANCH  19  20
BRANCH  19  25
ATOM     25  C   UNL     1       2.082   0.251   0.000  0.00  0.00    +0.000 C 
BRANCH  25  26
ATOM     26  C   UNL     1       2.867  -0.004   0.000  0.00  0.00    +0.000 A 
ATOM     27  C   UNL     1       3.480   0.548   0.000  0.00  0.00    +0.000 A 
ATOM     28  C   UNL     1       4.264   0.293   0.000  0.00  0.00    +0.000 A 
ATOM     29  C   UNL     1       4.436  -0.514   0.000  0.00  0.00    +0.000 A 
ATOM     30  O   UNL     1       5.221  -0.769   0.000  0.00  0.00    +0.000 OA
ATOM     31  C   UNL     1       3.823  -1.066   0.000  0.00  0.00    +0.000 A 
ATOM     32  C   UNL     1       3.038  -0.811   0.000  0.00  0.00    +0.000 A 
ENDBRANCH  25  26
ENDBRANCH  19  25
ENDBRANCH   6  19
TORSDOF 11
