REMARK  Name = SD8
REMARK  3 active torsions:
REMARK  status: ('A' for Active; 'I' for Inactive)
REMARK    1  A    between atoms: C_15  and  C_16
REMARK    2  A    between atoms: C_16  and  O_24
REMARK    3  A    between atoms: C_17  and  O_24
REMARK                            x       y       z     vdW  Elec       q    Type
REMARK                         _______ _______ _______ _____ _____    ______ ____
ROOT
ATOM      1  C   UNL     1       1.420   1.423   0.000  0.00  0.00    +0.000 C 
ATOM      2  C   UNL     1       1.420   2.248   0.000  0.00  0.00    +0.000 C 
ATOM      3  C   UNL     1       2.849   2.248   0.000  0.00  0.00    +0.000 A 
ATOM      4  C   UNL     1       3.564   2.660   0.000  0.00  0.00    +0.000 A 
ATOM      5  C   UNL     1       4.278   2.248   0.000  0.00  0.00    +0.000 A 
ATOM      6  C   UNL     1       4.278   1.423   0.000  0.00  0.00    +0.000 A 
ATOM      7  C   UNL     1       3.564   1.010   0.000  0.00  0.00    +0.000 A 
ATOM      8  C   UNL     1       2.849   1.423   0.000  0.00  0.00    +0.000 A 
ATOM      9  C   UNL     1       0.706   0.185   0.000  0.00  0.00    +0.000 C 
ATOM     10  C   UNL     1      -0.009  -0.227   0.000  0.00  0.00    +0.000 C 
ATOM     11  C   UNL     1      -0.723   1.010   0.000  0.00  0.00    +0.000 C 
ATOM     12  C   UNL     1      -0.009   1.423   0.000  0.00  0.00    +0.000 C 
ATOM     13  C   UNL     1      -1.438  -0.227   0.000  0.00  0.00    +0.000 A 
ATOM     14  C   UNL     1      -2.743  -0.504   0.000  0.00  0.00    +0.000 A 
ATOM     15  C   UNL     1      -2.331  -1.219   0.000  0.00  0.00    +0.000 A 
ATOM     16  N   UNL     1       2.135   1.010   0.000  0.00  0.00    +0.000 NA
ATOM     17  N   UNL     1       0.706   1.010   0.000  0.00  0.00    +0.000 N 
ATOM     18  N   UNL     1      -0.723   0.185   0.000  0.00  0.00    +0.000 N 
ATOM     19  N   UNL     1      -1.524  -1.047   0.000  0.00  0.00    +0.000 NA
ATOM     20  S   UNL     1       2.135   2.660   0.000  0.00  0.00    +0.000 S 
ATOM     21  S   UNL     1      -2.191   0.109   0.000  0.00  0.00    +0.000 S 
ENDROOT
BRANCH  15  22
ATOM     22  C   UNL     1      -2.667  -1.973   0.000  0.00  0.00    +0.000 C 
ATOM     23  O   UNL     1      -3.487  -2.059   0.000  0.00  0.00    +0.000 OA
BRANCH  22  24
ATOM     24  O   UNL     1      -2.182  -2.640   0.000  0.00  0.00    +0.000 OA
BRANCH  24  25
ATOM     25  C   UNL     1      -2.517  -3.394   0.000  0.00  0.00    +0.000 C 
ATOM     26  C   UNL     1      -2.032  -4.061   0.000  0.00  0.00    +0.000 C 
ENDBRANCH  24  25
ENDBRANCH  22  24
ENDBRANCH  15  22
TORSDOF 3
