REMARK  Name = SDN
REMARK  2 active torsions:
REMARK  status: ('A' for Active; 'I' for Inactive)
REMARK    1  A    between atoms: C_17  and  C_18
REMARK    2  A    between atoms: C_18  and  C_19
REMARK                            x       y       z     vdW  Elec       q    Type
REMARK                         _______ _______ _______ _____ _____    ______ ____
ROOT
ATOM      1  O   UNL     1       2.031  -1.667   0.000  0.00  0.00    +0.000 OA
ATOM      2  C   UNL     1       2.031  -0.842   0.000  0.00  0.00    +0.000 A 
ATOM      3  C   UNL     1       1.316  -0.429   0.000  0.00  0.00    +0.000 A 
ATOM      4  C   UNL     1       0.602  -0.842   0.000  0.00  0.00    +0.000 C 
ATOM      5  O   UNL     1       0.602  -1.667   0.000  0.00  0.00    +0.000 OA
ATOM      6  C   UNL     1      -0.113  -0.429   0.000  0.00  0.00    +0.000 C 
ATOM      7  C   UNL     1      -0.827  -0.842   0.000  0.00  0.00    +0.000 C 
ATOM      8  O   UNL     1      -1.541  -0.429   0.000  0.00  0.00    +0.000 OA
ATOM      9  C   UNL     1      -0.827  -1.667   0.000  0.00  0.00    +0.000 C 
ATOM     10  C   UNL     1       2.745  -0.429   0.000  0.00  0.00    +0.000 A 
ATOM     11  C   UNL     1       2.745   0.396   0.000  0.00  0.00    +0.000 A 
ATOM     12  C   UNL     1       2.031   0.808   0.000  0.00  0.00    +0.000 A 
ATOM     13  C   UNL     1       1.316   0.396   0.000  0.00  0.00    +0.000 A 
ATOM     14  C   UNL     1       0.602   0.808   0.000  0.00  0.00    +0.000 C 
ATOM     15  C   UNL     1      -0.113   0.396   0.000  0.00  0.00    +0.000 C 
ATOM     16  C   UNL     1      -0.827   0.808   0.000  0.00  0.00    +0.000 C 
ATOM     17  C   UNL     1      -1.541   0.396   0.000  0.00  0.00    +0.000 C 
ENDROOT
BRANCH  17  18
ATOM     18  C   UNL     1      -2.256   0.808   0.000  0.00  0.00    +0.000 C 
BRANCH  18  19
ATOM     19  C   UNL     1      -2.256   1.633   0.000  0.00  0.00    +0.000 C 
ATOM     20  O   UNL     1      -2.970   2.046   0.000  0.00  0.00    +0.000 OA
ATOM     21  O   UNL     1      -1.541   2.046   0.000  0.00  0.00    +0.000 OA
ENDBRANCH  18  19
ENDBRANCH  17  18
TORSDOF 2
