REMARK  Name = SDT
REMARK  3 active torsions:
REMARK  status: ('A' for Active; 'I' for Inactive)
REMARK    1  A    between atoms: C_10  and  C_13
REMARK    2  A    between atoms: C_13  and  C_14
REMARK    3  A    between atoms: C_14  and  C_15
REMARK                            x       y       z     vdW  Elec       q    Type
REMARK                         _______ _______ _______ _____ _____    ______ ____
ROOT
ATOM      1  O   UNL     1      -1.785   2.766   0.000  0.00  0.00    +0.000 OA
ATOM      2  C   UNL     1      -1.530   1.981   0.000  0.00  0.00    +0.000 C 
ATOM      3  C   UNL     1      -2.015   1.314   0.000  0.00  0.00    +0.000 C 
ATOM      4  C   UNL     1      -1.530   0.646   0.000  0.00  0.00    +0.000 C 
ATOM      5  C   UNL     1      -0.746   0.901   0.000  0.00  0.00    +0.000 C 
ATOM      6  C   UNL     1      -0.746   1.726   0.000  0.00  0.00    +0.000 C 
ATOM      7  C   UNL     1      -0.832   2.547   0.000  0.00  0.00    +0.000 C 
ATOM      8  C   UNL     1      -0.031   2.139   0.000  0.00  0.00    +0.000 C 
ATOM      9  C   UNL     1       0.683   1.726   0.000  0.00  0.00    +0.000 C 
ATOM     10  C   UNL     1      -0.031   0.489   0.000  0.00  0.00    +0.000 C 
ATOM     11  C   UNL     1       0.683   0.901   0.000  0.00  0.00    +0.000 C 
ATOM     12  O   UNL     1       1.398   0.489   0.000  0.00  0.00    +0.000 OA
ENDROOT
BRANCH  10  13
ATOM     13  C   UNL     1      -0.031  -0.336   0.000  0.00  0.00    +0.000 C 
BRANCH  13  14
ATOM     14  C   UNL     1       0.683  -0.749   0.000  0.00  0.00    +0.000 C 
BRANCH  14  15
ATOM     15  C   UNL     1       0.683  -1.573   0.000  0.00  0.00    +0.000 A 
ATOM     16  C   UNL     1       1.398  -1.986   0.000  0.00  0.00    +0.000 A 
ATOM     17  O   UNL     1       2.112  -1.573   0.000  0.00  0.00    +0.000 OA
ATOM     18  C   UNL     1       1.398  -2.811   0.000  0.00  0.00    +0.000 A 
ATOM     19  O   UNL     1       2.112  -3.224   0.000  0.00  0.00    +0.000 OA
ATOM     20  C   UNL     1       0.683  -3.224   0.000  0.00  0.00    +0.000 A 
ATOM     21  C   UNL     1      -0.031  -2.811   0.000  0.00  0.00    +0.000 A 
ATOM     22  C   UNL     1      -0.031  -1.986   0.000  0.00  0.00    +0.000 A 
ATOM     23  C   UNL     1      -0.746  -1.573   0.000  0.00  0.00    +0.000 C 
ENDBRANCH  14  15
ENDBRANCH  13  14
ENDBRANCH  10  13
TORSDOF 3
