REMARK  Name = SDZ
REMARK  7 active torsions:
REMARK  status: ('A' for Active; 'I' for Inactive)
REMARK    1  A    between atoms: C_6  and  N_7
REMARK    2  A    between atoms: N_10  and  C_13
REMARK    3  A    between atoms: C_13  and  C_14
REMARK    4  A    between atoms: C_14  and  C_16
REMARK    5  A    between atoms: C_16  and  O_17
REMARK    6  A    between atoms: O_17  and  C_18
REMARK    7  A    between atoms: C_21  and  C_24
REMARK                            x       y       z     vdW  Elec       q    Type
REMARK                         _______ _______ _______ _____ _____    ______ ____
ROOT
ATOM      1  C   UNL     1      -0.072  -0.771   0.000  0.00  0.00    +0.000 C 
ATOM      2  O   UNL     1      -0.787  -1.184   0.000  0.00  0.00    +0.000 OA
ENDROOT
BRANCH   1   3
ATOM      3  C   UNL     1       0.642  -1.184   0.000  0.00  0.00    +0.000 C 
BRANCH   3   7
ATOM      4  N   UNL     1       0.642  -3.659   0.000  0.00  0.00    +0.000 N 
ATOM      5  C   UNL     1      -0.072  -3.246   0.000  0.00  0.00    +0.000 C 
ATOM      6  C   UNL     1      -0.072  -2.421   0.000  0.00  0.00    +0.000 C 
ATOM      7  N   UNL     1       0.642  -2.009   0.000  0.00  0.00    +0.000 NA
ATOM      8  C   UNL     1       1.356  -3.246   0.000  0.00  0.00    +0.000 C 
ATOM      9  C   UNL     1       1.356  -2.421   0.000  0.00  0.00    +0.000 C 
BRANCH   4  15
ATOM     10  N   UNL     1       1.356  -4.896   0.000  0.00  0.00    +0.000 NA
ATOM     11  C   UNL     1       1.356  -5.721   0.000  0.00  0.00    +0.000 A 
ATOM     12  C   UNL     1       0.642  -6.134   0.000  0.00  0.00    +0.000 A 
ATOM     13  C   UNL     1      -0.072  -5.721   0.000  0.00  0.00    +0.000 A 
ATOM     14  C   UNL     1      -0.072  -4.896   0.000  0.00  0.00    +0.000 A 
ATOM     15  C   UNL     1       0.642  -4.484   0.000  0.00  0.00    +0.000 A 
ENDBRANCH   4  15
ENDBRANCH   3   7
ENDBRANCH   1   3
BRANCH   1  16
ATOM     16  C   UNL     1      -0.072   0.054   0.000  0.00  0.00    +0.000 C 
BRANCH  16  17
ATOM     17  O   UNL     1      -0.787   0.466   0.000  0.00  0.00    +0.000 OA
BRANCH  17  18
ATOM     18  C   UNL     1      -0.787   1.291   0.000  0.00  0.00    +0.000 A 
ATOM     19  C   UNL     1      -1.502   1.704   0.000  0.00  0.00    +0.000 A 
ATOM     20  C   UNL     1      -1.502   2.529   0.000  0.00  0.00    +0.000 A 
ATOM     21  C   UNL     1      -0.787   2.941   0.000  0.00  0.00    +0.000 A 
ATOM     22  C   UNL     1      -0.072   2.529   0.000  0.00  0.00    +0.000 A 
ATOM     23  C   UNL     1      -0.072   1.704   0.000  0.00  0.00    +0.000 A 
BRANCH  21  24
ATOM     24  C   UNL     1      -0.787   3.766   0.000  0.00  0.00    +0.000 C 
ATOM     25  C   UNL     1      -1.502   4.179   0.000  0.00  0.00    +0.000 C 
ATOM     26  C   UNL     1      -1.502   5.004   0.000  0.00  0.00    +0.000 C 
ATOM     27  C   UNL     1      -0.787   5.416   0.000  0.00  0.00    +0.000 C 
ATOM     28  C   UNL     1      -0.072   5.004   0.000  0.00  0.00    +0.000 C 
ATOM     29  C   UNL     1      -0.072   4.179   0.000  0.00  0.00    +0.000 C 
ENDBRANCH  21  24
ENDBRANCH  17  18
ENDBRANCH  16  17
ENDBRANCH   1  16
TORSDOF 7
