REMARK  Name = SEH
REMARK  6 active torsions:
REMARK  status: ('A' for Active; 'I' for Inactive)
REMARK    1  A    between atoms: C_1  and  S_2
REMARK    2  A    between atoms: S_2  and  C_11
REMARK    3  A    between atoms: C_4  and  C_5
REMARK    4  A    between atoms: C_4  and  C_11
REMARK    5  A    between atoms: N_12  and  O_13
REMARK    6  A    between atoms: O_13  and  S_14
REMARK                            x       y       z     vdW  Elec       q    Type
REMARK                         _______ _______ _______ _____ _____    ______ ____
ROOT
ATOM      1  C   UNL     1       1.212  -0.101   0.000  0.00  0.00    +0.000 C 
ATOM      2  N   UNL     1       1.926   0.311   0.000  0.00  0.00    +0.000 NA
ENDROOT
BRANCH   1   3
ATOM      3  C   UNL     1       1.212  -0.926   0.000  0.00  0.00    +0.000 C 
BRANCH   3   4
ATOM      4  C   UNL     1       0.497  -1.339   0.000  0.00  0.00    +0.000 A 
ATOM      5  C   UNL     1       0.497  -2.164   0.000  0.00  0.00    +0.000 A 
ATOM      6  C   UNL     1      -0.217  -0.926   0.000  0.00  0.00    +0.000 A 
ATOM      7  C   UNL     1      -0.217  -2.576   0.000  0.00  0.00    +0.000 A 
ATOM      8  C   UNL     1      -0.931  -1.339   0.000  0.00  0.00    +0.000 A 
ATOM      9  C   UNL     1      -0.931  -2.164   0.000  0.00  0.00    +0.000 A 
ENDBRANCH   3   4
ENDBRANCH   1   3
BRANCH   1  10
ATOM     10  S   UNL     1       0.497   0.311   0.000  0.00  0.00    +0.000 S 
BRANCH  10  11
ATOM     11  C   UNL     1      -0.217  -0.101   0.000  0.00  0.00    +0.000 C 
ATOM     12  C   UNL     1      -0.931   0.311   0.000  0.00  0.00    +0.000 C 
ENDBRANCH  10  11
ENDBRANCH   1  10
BRANCH   2  13
ATOM     13  O   UNL     1       1.926   1.136   0.000  0.00  0.00    +0.000 OA
BRANCH  13  14
ATOM     14  S   UNL     1       1.212   1.549   0.000  0.00  0.00    +0.000 S 
ATOM     15  O   UNL     1       0.497   1.961   0.000  0.00  0.00    +0.000 OA
ATOM     16  O   UNL     1       1.624   2.263   0.000  0.00  0.00    +0.000 OA
ATOM     17  O   UNL     1       0.799   0.834   0.000  0.00  0.00    +0.000 OA
ENDBRANCH  13  14
ENDBRANCH   2  13
TORSDOF 6
