REMARK  Name = SG1
REMARK  3 active torsions:
REMARK  status: ('A' for Active; 'I' for Inactive)
REMARK    1  A    between atoms: S_1  and  C_2
REMARK    2  A    between atoms: C_5  and  N_6
REMARK    3  A    between atoms: C_12  and  N_13
REMARK                            x       y       z     vdW  Elec       q    Type
REMARK                         _______ _______ _______ _____ _____    ______ ____
ROOT
ATOM      1  C   UNL     1       1.836   0.477   0.000  0.00  0.00    +0.000 A 
ATOM      2  C   UNL     1       1.664  -0.330   0.000  0.00  0.00    +0.000 A 
ATOM      3  C   UNL     1       0.880  -0.585   0.000  0.00  0.00    +0.000 A 
ATOM      4  C   UNL     1       0.267  -0.033   0.000  0.00  0.00    +0.000 A 
ATOM      5  C   UNL     1       0.438   0.774   0.000  0.00  0.00    +0.000 A 
ATOM      6  C   UNL     1       1.223   1.029   0.000  0.00  0.00    +0.000 A 
ENDROOT
BRANCH   4   7
ATOM      7  N   UNL     1      -0.518  -0.288   0.000  0.00  0.00    +0.000 N 
ATOM      8  C   UNL     1      -0.773  -1.073   0.000  0.00  0.00    +0.000 C 
ATOM      9  O   UNL     1      -0.288  -1.740   0.000  0.00  0.00    +0.000 OA
ATOM     10  C   UNL     1      -1.598  -1.073   0.000  0.00  0.00    +0.000 C 
ATOM     11  C   UNL     1      -1.853  -0.288   0.000  0.00  0.00    +0.000 C 
ATOM     12  C   UNL     1      -1.186   0.197   0.000  0.00  0.00    +0.000 C 
ENDBRANCH   4   7
BRANCH   1  13
ATOM     13  S   UNL     1       2.620   0.732   0.000  0.00  0.00    +0.000 S 
ATOM     14  N   UNL     1       3.405   0.986   0.000  0.00  0.00    +0.000 NA
ATOM     15  O   UNL     1       2.875  -0.053   0.000  0.00  0.00    +0.000 OA
ATOM     16  O   UNL     1       2.365   1.516   0.000  0.00  0.00    +0.000 OA
ENDBRANCH   1  13
BRANCH   5  17
ATOM     17  N   UNL     1      -0.175   1.326   0.000  0.00  0.00    +0.000 N 
ATOM     18  O   UNL     1      -0.004   2.133   0.000  0.00  0.00    +0.000 OA
ATOM     19  O   UNL     1      -0.960   1.071   0.000  0.00  0.00    +0.000 OA
ENDBRANCH   5  17
TORSDOF 3
