REMARK  Name = SG2
REMARK  1 active torsions:
REMARK  status: ('A' for Active; 'I' for Inactive)
REMARK    1  A    between atoms: S_1  and  C_2
REMARK                            x       y       z     vdW  Elec       q    Type
REMARK                         _______ _______ _______ _____ _____    ______ ____
ROOT
ATOM      1  C   UNL     1       1.057   0.466   0.000  0.00  0.00    +0.000 A 
ATOM      2  C   UNL     1       1.057  -0.359   0.000  0.00  0.00    +0.000 A 
ATOM      3  C   UNL     1       0.342  -0.772   0.000  0.00  0.00    +0.000 A 
ATOM      4  C   UNL     1      -0.372  -0.359   0.000  0.00  0.00    +0.000 A 
ATOM      5  N   UNL     1      -1.157  -0.614   0.000  0.00  0.00    +0.000 N 
ATOM      6  C   UNL     1      -1.412  -1.399   0.000  0.00  0.00    +0.000 C 
ATOM      7  S   UNL     1      -1.642   0.053   0.000  0.00  0.00    +0.000 S 
ATOM      8  C   UNL     1      -1.157   0.721   0.000  0.00  0.00    +0.000 A 
ATOM      9  O   UNL     1      -1.412   1.505   0.000  0.00  0.00    +0.000 OA
ATOM     10  C   UNL     1      -0.372   0.466   0.000  0.00  0.00    +0.000 A 
ATOM     11  C   UNL     1       0.342   0.878   0.000  0.00  0.00    +0.000 A 
ENDROOT
BRANCH   1  12
ATOM     12  S   UNL     1       1.771   0.878   0.000  0.00  0.00    +0.000 S 
ATOM     13  N   UNL     1       2.486   1.291   0.000  0.00  0.00    +0.000 NA
ATOM     14  O   UNL     1       2.184   0.164   0.000  0.00  0.00    +0.000 OA
ATOM     15  O   UNL     1       1.359   1.593   0.000  0.00  0.00    +0.000 OA
ENDBRANCH   1  12
TORSDOF 1
