REMARK  Name = SHM
REMARK  6 active torsions:
REMARK  status: ('A' for Active; 'I' for Inactive)
REMARK    1  A    between atoms: C_6  and  C_9
REMARK    2  A    between atoms: C_9  and  C_10
REMARK    3  A    between atoms: C_10  and  C_11
REMARK    4  A    between atoms: C_11  and  C_12
REMARK    5  A    between atoms: C_12  and  C_13
REMARK    6  A    between atoms: C_13  and  C_14
REMARK                            x       y       z     vdW  Elec       q    Type
REMARK                         _______ _______ _______ _____ _____    ______ ____
ROOT
ATOM      1  C   UNL     1      -2.202  -0.513   0.000  0.00  0.00    +0.000 C 
ATOM      2  C   UNL     1      -1.650   0.100   0.000  0.00  0.00    +0.000 C 
ATOM      3  N   UNL     1      -2.062   0.814   0.000  0.00  0.00    +0.000 NA
ATOM      4  C   UNL     1      -2.869   0.643   0.000  0.00  0.00    +0.000 C 
ATOM      5  N   UNL     1      -2.955  -0.178   0.000  0.00  0.00    +0.000 NA
ATOM      6  C   UNL     1      -0.896  -0.236   0.000  0.00  0.00    +0.000 C 
ATOM      7  S   UNL     1      -0.982  -1.056   0.000  0.00  0.00    +0.000 S 
ATOM      8  C   UNL     1      -1.789  -1.228   0.000  0.00  0.00    +0.000 C 
ATOM      9  O   UNL     1      -3.482   1.195   0.000  0.00  0.00    +0.000 OA
ENDROOT
BRANCH   6  10
ATOM     10  C   UNL     1      -0.181   0.177   0.000  0.00  0.00    +0.000 C 
BRANCH  10  11
ATOM     11  C   UNL     1       0.533  -0.236   0.000  0.00  0.00    +0.000 C 
BRANCH  11  12
ATOM     12  C   UNL     1       1.248   0.177   0.000  0.00  0.00    +0.000 C 
BRANCH  12  13
ATOM     13  C   UNL     1       1.962  -0.236   0.000  0.00  0.00    +0.000 C 
BRANCH  13  14
ATOM     14  C   UNL     1       2.676   0.177   0.000  0.00  0.00    +0.000 C 
BRANCH  14  15
ATOM     15  C   UNL     1       3.391  -0.236   0.000  0.00  0.00    +0.000 C 
ATOM     16  O   UNL     1       4.105   0.177   0.000  0.00  0.00    +0.000 OA
ATOM     17  O   UNL     1       3.391  -1.061   0.000  0.00  0.00    +0.000 OA
ENDBRANCH  14  15
ENDBRANCH  13  14
ENDBRANCH  12  13
ENDBRANCH  11  12
ENDBRANCH  10  11
ENDBRANCH   6  10
TORSDOF 6
