REMARK  Name = SHY
REMARK  4 active torsions:
REMARK  status: ('A' for Active; 'I' for Inactive)
REMARK    1  A    between atoms: C_2  and  C_4
REMARK    2  A    between atoms: C_7  and  C_10
REMARK    3  A    between atoms: N_18  and  C_22
REMARK    4  A    between atoms: C_22  and  C_23
REMARK                            x       y       z     vdW  Elec       q    Type
REMARK                         _______ _______ _______ _____ _____    ______ ____
ROOT
ATOM      1  C   UNL     1       0.412   0.848   0.000  0.00  0.00    +0.000 C 
ATOM      2  N   UNL     1       1.079   1.333   0.000  0.00  0.00    +0.000 NA
ATOM      3  C   UNL     1       1.334   2.118   0.000  0.00  0.00    +0.000 C 
ATOM      4  C   UNL     1       2.159   2.118   0.000  0.00  0.00    +0.000 C 
ATOM      5  C   UNL     1       2.414   1.333   0.000  0.00  0.00    +0.000 C 
ATOM      6  C   UNL     1       1.747   0.848   0.000  0.00  0.00    +0.000 C 
ATOM      7  C   UNL     1       1.492   0.064   0.000  0.00  0.00    +0.000 C 
ATOM      8  C   UNL     1       1.747  -0.721   0.000  0.00  0.00    +0.000 C 
ATOM      9  N   UNL     1       1.079  -1.206   0.000  0.00  0.00    +0.000 N 
ATOM     10  C   UNL     1       0.412  -0.721   0.000  0.00  0.00    +0.000 C 
ATOM     11  O   UNL     1      -0.373  -0.976   0.000  0.00  0.00    +0.000 OA
ATOM     12  C   UNL     1       0.667   0.064   0.000  0.00  0.00    +0.000 C 
ATOM     13  O   UNL     1       2.644   2.785   0.000  0.00  0.00    +0.000 OA
ATOM     14  O   UNL     1       2.531  -0.976   0.000  0.00  0.00    +0.000 OA
ENDROOT
BRANCH   1  18
ATOM     15  C   UNL     1      -1.942   1.613   0.000  0.00  0.00    +0.000 A 
ATOM     16  C   UNL     1      -1.329   2.165   0.000  0.00  0.00    +0.000 A 
ATOM     17  C   UNL     1      -0.544   1.910   0.000  0.00  0.00    +0.000 A 
ATOM     18  C   UNL     1      -0.373   1.103   0.000  0.00  0.00    +0.000 A 
ATOM     19  C   UNL     1      -0.986   0.551   0.000  0.00  0.00    +0.000 A 
ATOM     20  C   UNL     1      -1.770   0.806   0.000  0.00  0.00    +0.000 A 
BRANCH  15  22
ATOM     21  N   UNL     1      -3.340   1.316   0.000  0.00  0.00    +0.000 NA
ATOM     22  C   UNL     1      -2.727   1.868   0.000  0.00  0.00    +0.000 C 
ATOM     23  N   UNL     1      -2.898   2.675   0.000  0.00  0.00    +0.000 NA
ENDBRANCH  15  22
ENDBRANCH   1  18
BRANCH   9  24
ATOM     24  C   UNL     1       1.079  -2.031   0.000  0.00  0.00    +0.000 C 
BRANCH  24  25
ATOM     25  C   UNL     1       0.365  -2.443   0.000  0.00  0.00    +0.000 A 
ATOM     26  C   UNL     1       0.365  -3.268   0.000  0.00  0.00    +0.000 A 
ATOM     27  C   UNL     1      -0.349  -3.681   0.000  0.00  0.00    +0.000 A 
ATOM     28  C   UNL     1      -1.064  -3.268   0.000  0.00  0.00    +0.000 A 
ATOM     29  O   UNL     1      -1.849  -3.523   0.000  0.00  0.00    +0.000 OA
ATOM     30  C   UNL     1      -2.333  -2.856   0.000  0.00  0.00    +0.000 C 
ATOM     31  O   UNL     1      -1.849  -2.188   0.000  0.00  0.00    +0.000 OA
ATOM     32  C   UNL     1      -1.064  -2.443   0.000  0.00  0.00    +0.000 A 
ATOM     33  C   UNL     1      -0.349  -2.031   0.000  0.00  0.00    +0.000 A 
ENDBRANCH  24  25
ENDBRANCH   9  24
TORSDOF 4
