REMARK  Name = Sialyllactose.mol
REMARK  2 active torsions:
REMARK  status: ('A' for Active; 'I' for Inactive)
REMARK    1  A    between atoms: C_2  and  C_3
REMARK    2  A    between atoms: C_3  and  C_4
REMARK                            x       y       z     vdW  Elec       q    Type
REMARK                         _______ _______ _______ _____ _____    ______ ____
ROOT
ATOM      1  C   UNL     1       0.223  -0.222   0.000  0.00  0.00    +0.000 A 
ATOM      2  C   UNL     1       0.309  -1.043   0.000  0.00  0.00    +0.000 A 
ATOM      3  N   UNL     1      -0.444  -1.378   0.000  0.00  0.00    +0.000 NA
ATOM      4  C   UNL     1      -0.996  -0.765   0.000  0.00  0.00    +0.000 A 
ATOM      5  C   UNL     1      -1.821  -0.765   0.000  0.00  0.00    +0.000 A 
ATOM      6  C   UNL     1      -2.234  -0.051   0.000  0.00  0.00    +0.000 A 
ATOM      7  C   UNL     1      -1.821   0.664   0.000  0.00  0.00    +0.000 A 
ATOM      8  O   UNL     1      -2.234   1.378   0.000  0.00  0.00    +0.000 OA
ATOM      9  C   UNL     1      -0.996   0.664   0.000  0.00  0.00    +0.000 A 
ATOM     10  C   UNL     1      -0.584  -0.051   0.000  0.00  0.00    +0.000 A 
ENDROOT
BRANCH   1  11
ATOM     11  C   UNL     1       0.836   0.330   0.000  0.00  0.00    +0.000 C 
BRANCH  11  13
ATOM     12  N   UNL     1       2.234   0.627   0.000  0.00  0.00    +0.000 NA
ATOM     13  C   UNL     1       1.621   0.075   0.000  0.00  0.00    +0.000 C 
ENDBRANCH  11  13
ENDBRANCH   1  11
TORSDOF 2
