REMARK  Name = SIH
REMARK  6 active torsions:
REMARK  status: ('A' for Active; 'I' for Inactive)
REMARK    1  A    between atoms: C_12  and  O_13
REMARK    2  A    between atoms: O_13  and  C_25
REMARK    3  A    between atoms: C_19  and  C_22
REMARK    4  A    between atoms: C_25  and  C_27
REMARK    5  A    between atoms: C_27  and  C_28
REMARK    6  A    between atoms: C_28  and  C_29
REMARK                            x       y       z     vdW  Elec       q    Type
REMARK                         _______ _______ _______ _____ _____    ______ ____
ROOT
ATOM      1  C   UNL     1      -1.613   1.178   0.000  0.00  0.00    +0.000 C 
ATOM      2  C   UNL     1      -2.328   1.590   0.000  0.00  0.00    +0.000 C 
ATOM      3  C   UNL     1      -3.042   1.178   0.000  0.00  0.00    +0.000 C 
ATOM      4  O   UNL     1      -3.757   1.590   0.000  0.00  0.00    +0.000 OA
ATOM      5  C   UNL     1      -3.042   0.353   0.000  0.00  0.00    +0.000 C 
ATOM      6  C   UNL     1      -2.328  -0.060   0.000  0.00  0.00    +0.000 C 
ATOM      7  C   UNL     1      -2.328  -0.885   0.000  0.00  0.00    +0.000 C 
ATOM      8  C   UNL     1      -1.613  -1.297   0.000  0.00  0.00    +0.000 C 
ATOM      9  C   UNL     1      -0.899  -0.885   0.000  0.00  0.00    +0.000 C 
ATOM     10  C   UNL     1      -0.899  -0.060   0.000  0.00  0.00    +0.000 C 
ATOM     11  C   UNL     1      -1.613   0.353   0.000  0.00  0.00    +0.000 C 
ATOM     12  C   UNL     1      -0.184   0.353   0.000  0.00  0.00    +0.000 C 
ATOM     13  C   UNL     1       0.530  -0.060   0.000  0.00  0.00    +0.000 C 
ATOM     14  C   UNL     1       0.530  -0.885   0.000  0.00  0.00    +0.000 C 
ATOM     15  C   UNL     1      -0.184  -1.297   0.000  0.00  0.00    +0.000 C 
ATOM     16  C   UNL     1      -0.013  -2.104   0.000  0.00  0.00    +0.000 C 
ATOM     17  C   UNL     1       0.808  -2.191   0.000  0.00  0.00    +0.000 C 
ATOM     18  C   UNL     1       1.143  -1.437   0.000  0.00  0.00    +0.000 C 
ATOM     19  C   UNL     1       1.284  -0.549   0.000  0.00  0.00    +0.000 C 
ATOM     20  C   UNL     1      -0.899   0.765   0.000  0.00  0.00    +0.000 C 
ENDROOT
BRANCH  18  21
ATOM     21  C   UNL     1       1.950  -1.265   0.000  0.00  0.00    +0.000 C 
ATOM     22  O   UNL     1       2.502  -1.878   0.000  0.00  0.00    +0.000 OA
ATOM     23  C   UNL     1       2.205  -0.481   0.000  0.00  0.00    +0.000 C 
ENDBRANCH  18  21
BRANCH  12  24
ATOM     24  O   UNL     1      -0.184   1.178   0.000  0.00  0.00    +0.000 OA
BRANCH  24  25
ATOM     25  C   UNL     1       0.530   1.590   0.000  0.00  0.00    +0.000 C 
ATOM     26  O   UNL     1       0.530   2.415   0.000  0.00  0.00    +0.000 OA
BRANCH  25  27
ATOM     27  C   UNL     1       1.244   1.178   0.000  0.00  0.00    +0.000 C 
BRANCH  27  28
ATOM     28  C   UNL     1       1.959   1.590   0.000  0.00  0.00    +0.000 C 
BRANCH  28  29
ATOM     29  C   UNL     1       2.674   1.178   0.000  0.00  0.00    +0.000 C 
ATOM     30  O   UNL     1       2.674   0.353   0.000  0.00  0.00    +0.000 OA
ATOM     31  O   UNL     1       3.388   1.590   0.000  0.00  0.00    +0.000 OA
ENDBRANCH  28  29
ENDBRANCH  27  28
ENDBRANCH  25  27
ENDBRANCH  24  25
ENDBRANCH  12  24
TORSDOF 6
