REMARK  Name = SK2
REMARK  6 active torsions:
REMARK  status: ('A' for Active; 'I' for Inactive)
REMARK    1  A    between atoms: S_2  and  N_5
REMARK    2  A    between atoms: N_5  and  C_6
REMARK    3  A    between atoms: C_12  and  C_13
REMARK    4  A    between atoms: C_20  and  O_22
REMARK    5  A    between atoms: O_22  and  C_23
REMARK    6  A    between atoms: C_23  and  C_24
REMARK                            x       y       z     vdW  Elec       q    Type
REMARK                         _______ _______ _______ _____ _____    ______ ____
ROOT
ATOM      1  C   UNL     1      -2.537   0.445   0.000  0.00  0.00    +0.000 A 
ATOM      2  C   UNL     1      -2.537  -0.380   0.000  0.00  0.00    +0.000 A 
ATOM      3  C   UNL     1      -1.823   0.857   0.000  0.00  0.00    +0.000 A 
ATOM      4  C   UNL     1      -1.109   0.445   0.000  0.00  0.00    +0.000 A 
ATOM      5  C   UNL     1      -0.394   0.857   0.000  0.00  0.00    +0.000 C 
ATOM      6  N   UNL     1       0.321   0.445   0.000  0.00  0.00    +0.000 N 
ATOM      7  C   UNL     1       0.321  -0.380   0.000  0.00  0.00    +0.000 C 
ATOM      8  C   UNL     1      -0.394  -0.793   0.000  0.00  0.00    +0.000 C 
ATOM      9  C   UNL     1      -1.109  -0.380   0.000  0.00  0.00    +0.000 A 
ATOM     10  C   UNL     1      -1.823  -0.793   0.000  0.00  0.00    +0.000 A 
ATOM     11  C   UNL     1       1.035   0.857   0.000  0.00  0.00    +0.000 C 
ATOM     12  O   UNL     1       1.035   1.682   0.000  0.00  0.00    +0.000 OA
ENDROOT
BRANCH   7  13
ATOM     13  C   UNL     1       1.035  -0.793   0.000  0.00  0.00    +0.000 C 
ATOM     14  O   UNL     1       1.035  -1.618   0.000  0.00  0.00    +0.000 OA
ATOM     15  N   UNL     1       1.749  -0.380   0.000  0.00  0.00    +0.000 NA
ATOM     16  C   UNL     1       2.464  -0.793   0.000  0.00  0.00    +0.000 C 
ENDBRANCH   7  13
BRANCH   1  17
ATOM     17  N   UNL     1      -3.252   0.857   0.000  0.00  0.00    +0.000 NA
BRANCH  17  19
ATOM     18  O   UNL     1      -4.681   0.032   0.000  0.00  0.00    +0.000 OA
ATOM     19  S   UNL     1      -3.966   0.445   0.000  0.00  0.00    +0.000 S 
ATOM     20  O   UNL     1      -3.554  -0.270   0.000  0.00  0.00    +0.000 OA
ATOM     21  O   UNL     1      -4.379   1.159   0.000  0.00  0.00    +0.000 OA
ENDBRANCH  17  19
ENDBRANCH   1  17
BRANCH  11  22
ATOM     22  O   UNL     1       1.749   0.445   0.000  0.00  0.00    +0.000 OA
BRANCH  22  23
ATOM     23  C   UNL     1       2.464   0.857   0.000  0.00  0.00    +0.000 C 
BRANCH  23  24
ATOM     24  C   UNL     1       3.178   0.445   0.000  0.00  0.00    +0.000 A 
ATOM     25  C   UNL     1       3.893   0.857   0.000  0.00  0.00    +0.000 A 
ATOM     26  C   UNL     1       4.607   0.445   0.000  0.00  0.00    +0.000 A 
ATOM     27  C   UNL     1       3.178  -0.380   0.000  0.00  0.00    +0.000 A 
ATOM     28  C   UNL     1       3.893  -0.793   0.000  0.00  0.00    +0.000 A 
ATOM     29  C   UNL     1       4.607  -0.380   0.000  0.00  0.00    +0.000 A 
ENDBRANCH  23  24
ENDBRANCH  22  23
ENDBRANCH  11  22
TORSDOF 6
