REMARK  Name = SKA
REMARK  0 active torsions:
REMARK  status: ('A' for Active; 'I' for Inactive)
REMARK                            x       y       z     vdW  Elec       q    Type
REMARK                         _______ _______ _______ _____ _____    ______ ____
ROOT
ATOM      1 CL   UNL     1      -0.184   1.836   0.000  0.00  0.00    +0.000 Cl
ATOM      2  C   UNL     1      -0.184   1.011   0.000  0.00  0.00    +0.000 A 
ATOM      3  C   UNL     1       0.531   0.599   0.000  0.00  0.00    +0.000 A 
ATOM      4  C   UNL     1       1.245   1.011   0.000  0.00  0.00    +0.000 C 
ATOM      5  N   UNL     1       1.960   0.599   0.000  0.00  0.00    +0.000 NA
ATOM      6  C   UNL     1       1.960  -0.226   0.000  0.00  0.00    +0.000 C 
ATOM      7  C   UNL     1       1.245  -0.639   0.000  0.00  0.00    +0.000 C 
ATOM      8  C   UNL     1       0.531  -0.226   0.000  0.00  0.00    +0.000 A 
ATOM      9  C   UNL     1      -0.184  -0.639   0.000  0.00  0.00    +0.000 A 
ATOM     10  C   UNL     1      -0.898  -0.226   0.000  0.00  0.00    +0.000 A 
ATOM     11  C   UNL     1      -0.898   0.599   0.000  0.00  0.00    +0.000 A 
ATOM     12 CL   UNL     1      -1.613   1.011   0.000  0.00  0.00    +0.000 Cl
ENDROOT
TORSDOF 0
