REMARK  Name = SLE
REMARK  4 active torsions:
REMARK  status: ('A' for Active; 'I' for Inactive)
REMARK    1  A    between atoms: C_1  and  C_4
REMARK    2  A    between atoms: C_4  and  C_5
REMARK    3  A    between atoms: C_4  and  C_7
REMARK    4  A    between atoms: C_7  and  C_8
REMARK                            x       y       z     vdW  Elec       q    Type
REMARK                         _______ _______ _______ _____ _____    ______ ____
ROOT
ATOM      1  C   UNL     1      -0.667   0.062   0.000  0.00  0.00    +0.000 C 
ENDROOT
BRANCH   1   2
ATOM      2  C   UNL     1      -1.381   0.474   0.000  0.00  0.00    +0.000 C 
ATOM      3  O   UNL     1      -2.095   0.062   0.000  0.00  0.00    +0.000 OA
ATOM      4  O   UNL     1      -1.381   1.299   0.000  0.00  0.00    +0.000 OA
ENDBRANCH   1   2
BRANCH   1   5
ATOM      5  C   UNL     1      -0.667  -0.763   0.000  0.00  0.00    +0.000 C 
ATOM      6  S   UNL     1      -1.381  -1.176   0.000  0.00  0.00    +0.000 S 
ENDBRANCH   1   5
BRANCH   1   7
ATOM      7  C   UNL     1       0.048   0.474   0.000  0.00  0.00    +0.000 C 
BRANCH   7   8
ATOM      8  C   UNL     1       0.762   0.062   0.000  0.00  0.00    +0.000 C 
ATOM      9  C   UNL     1       1.477   0.474   0.000  0.00  0.00    +0.000 C 
ATOM     10  C   UNL     1       0.762  -0.763   0.000  0.00  0.00    +0.000 C 
ENDBRANCH   7   8
ENDBRANCH   1   7
TORSDOF 4
