REMARK  Name = SM2
REMARK  6 active torsions:
REMARK  status: ('A' for Active; 'I' for Inactive)
REMARK    1  A    between atoms: C_5  and  C_6
REMARK    2  A    between atoms: C_6  and  C_7
REMARK    3  A    between atoms: N_9  and  C_10
REMARK    4  A    between atoms: C_10  and  B_11
REMARK    5  A    between atoms: C_10  and  C_14
REMARK    6  A    between atoms: C_19  and  C_20
REMARK                            x       y       z     vdW  Elec       q    Type
REMARK                         _______ _______ _______ _____ _____    ______ ____
ROOT
ATOM      1  C   UNL     1       0.306   0.024   0.000  0.00  0.00    +0.000 C 
ENDROOT
BRANCH   1   2
ATOM      2  C   UNL     1       0.719  -0.690   0.000  0.00  0.00    +0.000 A 
ATOM      3  C   UNL     1       1.544  -0.690   0.000  0.00  0.00    +0.000 A 
ATOM      4  C   UNL     1       0.306  -1.405   0.000  0.00  0.00    +0.000 A 
ATOM      5  C   UNL     1       0.719  -2.119   0.000  0.00  0.00    +0.000 A 
ATOM      6  C   UNL     1       1.544  -2.119   0.000  0.00  0.00    +0.000 A 
ATOM      7  C   UNL     1       1.956  -1.405   0.000  0.00  0.00    +0.000 A 
BRANCH   7   8
ATOM      8  C   UNL     1       2.781  -1.405   0.000  0.00  0.00    +0.000 C 
ATOM      9  O   UNL     1       3.194  -0.690   0.000  0.00  0.00    +0.000 OA
ATOM     10  O   UNL     1       3.194  -2.119   0.000  0.00  0.00    +0.000 OA
ENDBRANCH   7   8
ENDBRANCH   1   2
BRANCH   1  13
ATOM     11  C   UNL     1      -0.931   0.739   0.000  0.00  0.00    +0.000 C 
ATOM     12  O   UNL     1      -0.518   1.453   0.000  0.00  0.00    +0.000 OA
ATOM     13  N   UNL     1      -0.518   0.024   0.000  0.00  0.00    +0.000 NA
BRANCH  11  14
ATOM     14  C   UNL     1      -1.756   0.739   0.000  0.00  0.00    +0.000 C 
BRANCH  14  19
ATOM     15  C   UNL     1      -2.989   1.540   0.000  0.00  0.00    +0.000 A 
ATOM     16  C   UNL     1      -3.160   2.346   0.000  0.00  0.00    +0.000 A 
ATOM     17  C   UNL     1      -2.446   2.759   0.000  0.00  0.00    +0.000 A 
ATOM     18  S   UNL     1      -1.833   2.207   0.000  0.00  0.00    +0.000 S 
ATOM     19  C   UNL     1      -2.168   1.453   0.000  0.00  0.00    +0.000 A 
ENDBRANCH  14  19
ENDBRANCH  11  14
ENDBRANCH   1  13
BRANCH   1  20
ATOM     20  B   UNL     1       0.719   0.739   0.000  0.00  0.00    +0.000 B 
ATOM     21  O   UNL     1       0.306   1.453   0.000  0.00  0.00    +0.000 OA
ATOM     22  O   UNL     1       1.544   0.739   0.000  0.00  0.00    +0.000 OA
ENDBRANCH   1  20
TORSDOF 6
