REMARK  Name = SM3
REMARK  5 active torsions:
REMARK  status: ('A' for Active; 'I' for Inactive)
REMARK    1  A    between atoms: C_5  and  C_6
REMARK    2  A    between atoms: C_6  and  C_7
REMARK    3  A    between atoms: N_9  and  C_10
REMARK    4  A    between atoms: C_10  and  B_11
REMARK    5  A    between atoms: C_10  and  C_14
REMARK                            x       y       z     vdW  Elec       q    Type
REMARK                         _______ _______ _______ _____ _____    ______ ____
ROOT
ATOM      1  C   UNL     1       0.652   0.377   0.000  0.00  0.00    +0.000 C 
ENDROOT
BRANCH   1   2
ATOM      2  C   UNL     1       1.065   1.091   0.000  0.00  0.00    +0.000 A 
ATOM      3  C   UNL     1       0.652   1.806   0.000  0.00  0.00    +0.000 A 
ATOM      4  C   UNL     1       1.890   1.091   0.000  0.00  0.00    +0.000 A 
ATOM      5  C   UNL     1       2.302   1.806   0.000  0.00  0.00    +0.000 A 
ATOM      6  C   UNL     1       1.890   2.520   0.000  0.00  0.00    +0.000 A 
ATOM      7  C   UNL     1       1.065   2.520   0.000  0.00  0.00    +0.000 A 
ENDBRANCH   1   2
BRANCH   1  10
ATOM      8  C   UNL     1      -0.585  -0.338   0.000  0.00  0.00    +0.000 C 
ATOM      9  O   UNL     1      -0.173  -1.052   0.000  0.00  0.00    +0.000 OA
ATOM     10  N   UNL     1      -0.173   0.377   0.000  0.00  0.00    +0.000 NA
BRANCH   8  11
ATOM     11  C   UNL     1      -1.410  -0.338   0.000  0.00  0.00    +0.000 C 
BRANCH  11  16
ATOM     12  C   UNL     1      -1.487  -1.806   0.000  0.00  0.00    +0.000 A 
ATOM     13  C   UNL     1      -2.100  -2.358   0.000  0.00  0.00    +0.000 A 
ATOM     14  C   UNL     1      -2.815  -1.946   0.000  0.00  0.00    +0.000 A 
ATOM     15  S   UNL     1      -2.643  -1.139   0.000  0.00  0.00    +0.000 S 
ATOM     16  C   UNL     1      -1.823  -1.052   0.000  0.00  0.00    +0.000 A 
ENDBRANCH  11  16
ENDBRANCH   8  11
ENDBRANCH   1  10
BRANCH   1  17
ATOM     17  B   UNL     1       1.065  -0.338   0.000  0.00  0.00    +0.000 B 
ATOM     18  O   UNL     1       1.890  -0.338   0.000  0.00  0.00    +0.000 OA
ATOM     19  O   UNL     1       0.652  -1.052   0.000  0.00  0.00    +0.000 OA
ENDBRANCH   1  17
TORSDOF 5
