REMARK  Name = SM5
REMARK  3 active torsions:
REMARK  status: ('A' for Active; 'I' for Inactive)
REMARK    1  A    between atoms: C_1  and  N_2
REMARK    2  A    between atoms: C_5  and  C_17
REMARK    3  A    between atoms: C_16  and  C_20
REMARK                            x       y       z     vdW  Elec       q    Type
REMARK                         _______ _______ _______ _____ _____    ______ ____
ROOT
ATOM      1  N   UNL     1       1.201   0.356   0.000  0.00  0.00    +0.000 N 
ATOM      2  N   UNL     1       0.789   1.071   0.000  0.00  0.00    +0.000 NA
ATOM      3  C   UNL     1       0.649  -0.257   0.000  0.00  0.00    +0.000 A 
ATOM      4  C   UNL     1      -0.105   0.079   0.000  0.00  0.00    +0.000 A 
ATOM      5  C   UNL     1      -0.018   0.899   0.000  0.00  0.00    +0.000 A 
ENDROOT
BRANCH   4   8
ATOM      6  C   UNL     1      -1.534  -1.571   0.000  0.00  0.00    +0.000 A 
ATOM      7  C   UNL     1      -0.819  -1.159   0.000  0.00  0.00    +0.000 A 
ATOM      8  C   UNL     1      -0.819  -0.334   0.000  0.00  0.00    +0.000 A 
ATOM      9  C   UNL     1      -1.534   0.079   0.000  0.00  0.00    +0.000 A 
ATOM     10  C   UNL     1      -2.248  -0.334   0.000  0.00  0.00    +0.000 A 
ATOM     11  C   UNL     1      -2.248  -1.159   0.000  0.00  0.00    +0.000 A 
ATOM     12  C   UNL     1      -3.033  -0.079   0.000  0.00  0.00    +0.000 C 
ATOM     13  C   UNL     1      -3.518  -0.746   0.000  0.00  0.00    +0.000 C 
ATOM     14  C   UNL     1      -3.033  -1.414   0.000  0.00  0.00    +0.000 C 
ATOM     15  N   UNL     1      -3.288  -2.198   0.000  0.00  0.00    +0.000 NA
ATOM     16  O   UNL     1      -4.095  -2.370   0.000  0.00  0.00    +0.000 OA
ENDBRANCH   4   8
BRANCH   1  17
ATOM     17  C   UNL     1       2.022   0.270   0.000  0.00  0.00    +0.000 C 
ATOM     18  C   UNL     1       3.178  -0.570   0.000  0.00  0.00    +0.000 C 
ATOM     19  C   UNL     1       2.506   0.938   0.000  0.00  0.00    +0.000 C 
ATOM     20  C   UNL     1       3.327   0.851   0.000  0.00  0.00    +0.000 C 
ATOM     21  N   UNL     1       3.663   0.098   0.000  0.00  0.00    +0.000 NA
ATOM     22  C   UNL     1       2.357  -0.484   0.000  0.00  0.00    +0.000 C 
ENDBRANCH   1  17
BRANCH   5  27
ATOM     23  C   UNL     1      -0.460   2.258   0.000  0.00  0.00    +0.000 A 
ATOM     24  C   UNL     1      -1.073   2.810   0.000  0.00  0.00    +0.000 A 
ATOM     25  C   UNL     1      -2.029   1.748   0.000  0.00  0.00    +0.000 A 
ATOM     26  C   UNL     1      -1.416   1.196   0.000  0.00  0.00    +0.000 A 
ATOM     27  C   UNL     1      -0.631   1.451   0.000  0.00  0.00    +0.000 A 
ATOM     28  N   UNL     1      -1.858   2.555   0.000  0.00  0.00    +0.000 NA
ENDBRANCH   5  27
TORSDOF 3
