REMARK  Name = SMG
REMARK  8 active torsions:
REMARK  status: ('A' for Active; 'I' for Inactive)
REMARK    1  A    between atoms: C_3  and  C_4
REMARK    2  A    between atoms: C_4  and  C_5
REMARK    3  A    between atoms: C_5  and  C_7
REMARK    4  A    between atoms: N_8  and  CA_12
REMARK    5  A    between atoms: C_11  and  CA_12
REMARK    6  A    between atoms: CA_12  and  CB_13
REMARK    7  A    between atoms: CB_13  and  CG_14
REMARK    8  A    between atoms: CG_14  and  SD_15
REMARK                            x       y       z     vdW  Elec       q    Type
REMARK                         _______ _______ _______ _____ _____    ______ ____
ROOT
ATOM      1  O   UNL     1      -0.786   0.809   0.000  0.00  0.00    +0.000 OA
ATOM      2  C   ACE A   0      -0.786  -0.016   0.000  0.00  0.00    +0.000 C 
ATOM      3  N   UNL     1      -0.071  -0.428   0.000  0.00  0.00    +0.000 NA
ENDROOT
BRANCH   2   4
ATOM      4  C   UNL     1      -1.500  -0.428   0.000  0.00  0.00    +0.000 C 
BRANCH   4   5
ATOM      5  C   UNL     1      -2.215  -0.016   0.000  0.00  0.00    +0.000 C 
BRANCH   5   8
ATOM      6  O   UNL     1      -3.643  -0.016   0.000  0.00  0.00    +0.000 OA
ATOM      7  O   UNL     1      -2.929  -1.253   0.000  0.00  0.00    +0.000 OA
ATOM      8  C   UNL     1      -2.929  -0.428   0.000  0.00  0.00    +0.000 C 
ENDBRANCH   5   8
ENDBRANCH   4   5
ENDBRANCH   2   4
BRANCH   3   9
ATOM      9  CA  UNL     1       0.643  -0.016   0.000  0.00  0.00    +0.000 C 
BRANCH   9  12
ATOM     10  O   UNL     1       1.358   1.222   0.000  0.00  0.00    +0.000 OA
ATOM     11  OXT UNL     1      -0.071   1.222   0.000  0.00  0.00    +0.000 OA
ATOM     12  C   UNL     1       0.643   0.809   0.000  0.00  0.00    +0.000 C 
ENDBRANCH   9  12
BRANCH   9  13
ATOM     13  CB  UNL     1       1.358  -0.428   0.000  0.00  0.00    +0.000 C 
BRANCH  13  14
ATOM     14  CG  UNL     1       2.072  -0.016   0.000  0.00  0.00    +0.000 C 
BRANCH  14  15
ATOM     15  SD  UNL     1       2.787  -0.428   0.000  0.00  0.00    +0.000 S 
ATOM     16  CE  UNL     1       3.501  -0.016   0.000  0.00  0.00    +0.000 C 
ENDBRANCH  14  15
ENDBRANCH  13  14
ENDBRANCH   9  13
ENDBRANCH   3   9
TORSDOF 8
