REMARK  Name = SN0
REMARK  7 active torsions:
REMARK  status: ('A' for Active; 'I' for Inactive)
REMARK    1  A    between atoms: CA_1  and  C_2
REMARK    2  A    between atoms: CA_1  and  C_5
REMARK    3  A    between atoms: CA_1  and  N_8
REMARK    4  A    between atoms: C_5  and  C_6
REMARK    5  A    between atoms: C_9  and  C_11
REMARK    6  A    between atoms: C_11  and  C_12
REMARK    7  A    between atoms: C_12  and  C_13
REMARK                            x       y       z     vdW  Elec       q    Type
REMARK                         _______ _______ _______ _____ _____    ______ ____
ROOT
ATOM      1  N   UNL     1       0.302  -0.089   0.000  0.00  0.00    +0.000 NA
ATOM      2  C   UNL     1       1.017   0.323   0.000  0.00  0.00    +0.000 C 
ATOM      3  O   UNL     1       1.017   1.148   0.000  0.00  0.00    +0.000 OA
ENDROOT
BRANCH   2   4
ATOM      4  C   UNL     1       1.731  -0.089   0.000  0.00  0.00    +0.000 C 
BRANCH   4   5
ATOM      5  C   UNL     1       2.446   0.323   0.000  0.00  0.00    +0.000 C 
BRANCH   5   6
ATOM      6  C   UNL     1       3.160  -0.089   0.000  0.00  0.00    +0.000 C 
ATOM      7  O   UNL     1       3.875   0.323   0.000  0.00  0.00    +0.000 OA
ATOM      8  O   UNL     1       3.160  -0.914   0.000  0.00  0.00    +0.000 OA
ENDBRANCH   5   6
ENDBRANCH   4   5
ENDBRANCH   2   4
BRANCH   1   9
ATOM      9  CA  UNL     1      -0.412   0.323   0.000  0.00  0.00    +0.000 C 
BRANCH   9  10
ATOM     10  C   UNL     1      -0.412   1.148   0.000  0.00  0.00    +0.000 C 
ATOM     11  O   UNL     1       0.302   1.560   0.000  0.00  0.00    +0.000 OA
ATOM     12  OXT UNL     1      -1.127   1.560   0.000  0.00  0.00    +0.000 OA
ENDBRANCH   9  10
BRANCH   9  13
ATOM     13  C   UNL     1      -1.127  -0.089   0.000  0.00  0.00    +0.000 C 
BRANCH  13  14
ATOM     14  C   UNL     1      -1.841   0.323   0.000  0.00  0.00    +0.000 C 
ATOM     15  C   UNL     1      -2.556  -0.089   0.000  0.00  0.00    +0.000 C 
ENDBRANCH  13  14
ENDBRANCH   9  13
ENDBRANCH   1   9
TORSDOF 7
