REMARK  Name = SN2
REMARK  8 active torsions:
REMARK  status: ('A' for Active; 'I' for Inactive)
REMARK    1  A    between atoms: C_1  and  N_19
REMARK    2  A    between atoms: C_3  and  C_11
REMARK    3  A    between atoms: C_4  and  N_17
REMARK    4  A    between atoms: C_6  and  N_18
REMARK    5  A    between atoms: C_7  and  C_9
REMARK    6  A    between atoms: C_7  and  N_19
REMARK    7  A    between atoms: C_8  and  C_10
REMARK    8  A    between atoms: C_8  and  N_19
REMARK                            x       y       z     vdW  Elec       q    Type
REMARK                         _______ _______ _______ _____ _____    ______ ____
ROOT
ATOM      1  C   UNL     1       0.521  -0.067   0.000  0.00  0.00    +0.000 A 
ATOM      2  C   UNL     1      -0.193   0.345   0.000  0.00  0.00    +0.000 A 
ATOM      3  C   UNL     1      -0.193   1.171   0.000  0.00  0.00    +0.000 A 
ATOM      4  C   UNL     1       0.521   1.583   0.000  0.00  0.00    +0.000 A 
ATOM      5  C   UNL     1       1.236   1.171   0.000  0.00  0.00    +0.000 A 
ATOM      6  C   UNL     1       1.236   0.345   0.000  0.00  0.00    +0.000 A 
ENDROOT
BRANCH   6   9
ATOM      7  O   UNL     1       2.665   0.345   0.000  0.00  0.00    +0.000 OA
ATOM      8  O   UNL     1       1.950  -0.892   0.000  0.00  0.00    +0.000 OA
ATOM      9  N   UNL     1       1.950  -0.067   0.000  0.00  0.00    +0.000 N 
ENDBRANCH   6   9
BRANCH   4  12
ATOM     10  O   UNL     1       1.236   2.821   0.000  0.00  0.00    +0.000 OA
ATOM     11  O   UNL     1      -0.193   2.821   0.000  0.00  0.00    +0.000 OA
ATOM     12  N   UNL     1       0.521   2.408   0.000  0.00  0.00    +0.000 N 
ENDBRANCH   4  12
BRANCH   3  13
ATOM     13  C   UNL     1      -0.907   1.583   0.000  0.00  0.00    +0.000 C 
ATOM     14  O   UNL     1      -0.907   2.408   0.000  0.00  0.00    +0.000 OA
ATOM     15  N   UNL     1      -1.622   1.171   0.000  0.00  0.00    +0.000 NA
ENDBRANCH   3  13
BRANCH   1  16
ATOM     16  N   UNL     1       0.521  -0.892   0.000  0.00  0.00    +0.000 N 
BRANCH  16  17
ATOM     17  C   UNL     1       1.236  -1.304   0.000  0.00  0.00    +0.000 C 
BRANCH  17  18
ATOM     18  C   UNL     1       1.236  -2.130   0.000  0.00  0.00    +0.000 C 
ATOM     19 CL   UNL     1       1.950  -2.542   0.000  0.00  0.00    +0.000 Cl
ENDBRANCH  17  18
ENDBRANCH  16  17
BRANCH  16  20
ATOM     20  C   UNL     1      -0.193  -1.304   0.000  0.00  0.00    +0.000 C 
BRANCH  20  21
ATOM     21  C   UNL     1      -0.193  -2.130   0.000  0.00  0.00    +0.000 C 
ATOM     22 CL   UNL     1      -0.907  -2.542   0.000  0.00  0.00    +0.000 Cl
ENDBRANCH  20  21
ENDBRANCH  16  20
ENDBRANCH   1  16
TORSDOF 8
