REMARK  Name = SNB
REMARK  2 active torsions:
REMARK  status: ('A' for Active; 'I' for Inactive)
REMARK    1  A    between atoms: C_3  and  O_4
REMARK    2  A    between atoms: C_10  and  C_14
REMARK                            x       y       z     vdW  Elec       q    Type
REMARK                         _______ _______ _______ _____ _____    ______ ____
ROOT
ATOM      1 CL   UNL     1      -1.537   0.186   0.000  0.00  0.00    +0.000 Cl
ATOM      2  C   UNL     1      -0.823   0.599   0.000  0.00  0.00    +0.000 A 
ATOM      3  C   UNL     1      -0.823   1.424   0.000  0.00  0.00    +0.000 A 
ATOM      4  C   UNL     1      -0.108   0.186   0.000  0.00  0.00    +0.000 A 
ATOM      5  C   UNL     1       0.606   0.599   0.000  0.00  0.00    +0.000 A 
ATOM      6  C   UNL     1       0.606   1.424   0.000  0.00  0.00    +0.000 A 
ATOM      7  C   UNL     1      -0.108   1.836   0.000  0.00  0.00    +0.000 A 
ATOM      8  C   UNL     1       1.321   0.186   0.000  0.00  0.00    +0.000 C 
ATOM      9  N   UNL     1       2.035   0.599   0.000  0.00  0.00    +0.000 NA
ATOM     10  C   UNL     1       2.035   1.424   0.000  0.00  0.00    +0.000 C 
ATOM     11  C   UNL     1       1.321   1.836   0.000  0.00  0.00    +0.000 C 
ENDROOT
BRANCH   8  12
ATOM     12  C   UNL     1       1.321  -0.639   0.000  0.00  0.00    +0.000 A 
ATOM     13  C   UNL     1       2.035  -1.051   0.000  0.00  0.00    +0.000 A 
ATOM     14  C   UNL     1       2.035  -1.876   0.000  0.00  0.00    +0.000 A 
ATOM     15 BR   UNL     1       2.750  -2.289   0.000  0.00  0.00    +0.000 Br
ATOM     16  C   UNL     1       1.321  -2.289   0.000  0.00  0.00    +0.000 A 
ATOM     17  C   UNL     1       0.606  -1.876   0.000  0.00  0.00    +0.000 A 
ATOM     18  C   UNL     1       0.606  -1.051   0.000  0.00  0.00    +0.000 A 
ENDBRANCH   8  12
BRANCH   3  19
ATOM     19  O   UNL     1      -1.537   1.836   0.000  0.00  0.00    +0.000 OA
ATOM     20  C   UNL     1      -1.537   2.661   0.000  0.00  0.00    +0.000 C 
ENDBRANCH   3  19
TORSDOF 2
