REMARK  Name = SNH
REMARK  6 active torsions:
REMARK  status: ('A' for Active; 'I' for Inactive)
REMARK    1  A    between atoms: C_1  and  C_21
REMARK    2  A    between atoms: C_3  and  N_9
REMARK    3  A    between atoms: C_4  and  C_6
REMARK    4  A    between atoms: N_9  and  S_10
REMARK    5  A    between atoms: S_10  and  C_13
REMARK    6  A    between atoms: C_24  and  C_26
REMARK                            x       y       z     vdW  Elec       q    Type
REMARK                         _______ _______ _______ _____ _____    ______ ____
ROOT
ATOM      1  C   UNL     1       0.336   1.777   0.000  0.00  0.00    +0.000 A 
ATOM      2  C   UNL     1       1.003   1.292   0.000  0.00  0.00    +0.000 A 
ATOM      3  C   UNL     1       0.749   0.507   0.000  0.00  0.00    +0.000 A 
ATOM      4  C   UNL     1      -0.076   0.507   0.000  0.00  0.00    +0.000 A 
ATOM      5  S   UNL     1      -0.332   1.292   0.000  0.00  0.00    +0.000 S 
ENDROOT
BRANCH   1   6
ATOM      6  C   UNL     1       0.336   2.602   0.000  0.00  0.00    +0.000 A 
ATOM      7  C   UNL     1      -0.332   3.087   0.000  0.00  0.00    +0.000 A 
ATOM      8  C   UNL     1      -0.076   3.871   0.000  0.00  0.00    +0.000 A 
ATOM      9  C   UNL     1       0.749   3.871   0.000  0.00  0.00    +0.000 A 
ATOM     10  S   UNL     1       1.003   3.087   0.000  0.00  0.00    +0.000 S 
BRANCH   9  11
ATOM     11  C   UNL     1       1.233   4.539   0.000  0.00  0.00    +0.000 C 
ATOM     12  C   UNL     1       0.898   5.292   0.000  0.00  0.00    +0.000 C 
ATOM     13  O   UNL     1       2.054   4.452   0.000  0.00  0.00    +0.000 OA
ENDBRANCH   9  11
ENDBRANCH   1   6
BRANCH   4  14
ATOM     14  C   UNL     1      -0.561  -0.160   0.000  0.00  0.00    +0.000 C 
ATOM     15  O   UNL     1      -1.382  -0.074   0.000  0.00  0.00    +0.000 OA
ATOM     16  O   UNL     1      -0.226  -0.914   0.000  0.00  0.00    +0.000 OA
ENDBRANCH   4  14
BRANCH   3  17
ATOM     17  N   UNL     1       1.233  -0.160   0.000  0.00  0.00    +0.000 NA
BRANCH  17  18
ATOM     18  S   UNL     1       0.898  -0.914   0.000  0.00  0.00    +0.000 S 
ATOM     19  O   UNL     1       1.651  -1.250   0.000  0.00  0.00    +0.000 OA
ATOM     20  O   UNL     1       0.144  -0.579   0.000  0.00  0.00    +0.000 OA
BRANCH  18  21
ATOM     21  C   UNL     1       0.562  -1.668   0.000  0.00  0.00    +0.000 A 
ATOM     22  C   UNL     1       1.047  -2.335   0.000  0.00  0.00    +0.000 A 
ATOM     23  C   UNL     1       0.712  -3.089   0.000  0.00  0.00    +0.000 A 
ATOM     24  C   UNL     1      -0.109  -3.175   0.000  0.00  0.00    +0.000 A 
ATOM     25  C   UNL     1      -0.594  -2.508   0.000  0.00  0.00    +0.000 A 
ATOM     26  C   UNL     1      -0.258  -1.754   0.000  0.00  0.00    +0.000 A 
ATOM     27  C   UNL     1      -0.743  -1.087   0.000  0.00  0.00    +0.000 C 
ATOM     28  C   UNL     1      -0.444  -3.929   0.000  0.00  0.00    +0.000 C 
ENDBRANCH  18  21
ENDBRANCH  17  18
ENDBRANCH   3  17
TORSDOF 6
