REMARK  Name = SNR
REMARK  4 active torsions:
REMARK  status: ('A' for Active; 'I' for Inactive)
REMARK    1  A    between atoms: C_6  and  C_10
REMARK    2  A    between atoms: C_10  and  C_11
REMARK    3  A    between atoms: C_11  and  C_12
REMARK    4  A    between atoms: C_12  and  C_13
REMARK                            x       y       z     vdW  Elec       q    Type
REMARK                         _______ _______ _______ _____ _____    ______ ____
ROOT
ATOM      1  C   UNL     1      -2.244   0.611   0.000  0.00  0.00    +0.000 C 
ATOM      2  N   UNL     1      -2.330  -0.210   0.000  0.00  0.00    +0.000 NA
ATOM      3  C   UNL     1      -1.576  -0.545   0.000  0.00  0.00    +0.000 C 
ATOM      4  C   UNL     1      -1.024   0.068   0.000  0.00  0.00    +0.000 C 
ATOM      5  N   UNL     1      -1.437   0.782   0.000  0.00  0.00    +0.000 NA
ATOM      6  C   UNL     1      -0.271  -0.268   0.000  0.00  0.00    +0.000 C 
ATOM      7  S   UNL     1      -0.357  -1.088   0.000  0.00  0.00    +0.000 S 
ATOM      8  C   UNL     1      -1.164  -1.260   0.000  0.00  0.00    +0.000 C 
ATOM      9  O   UNL     1      -2.857   1.163   0.000  0.00  0.00    +0.000 OA
ENDROOT
BRANCH   6  10
ATOM     10  C   UNL     1       0.444   0.145   0.000  0.00  0.00    +0.000 C 
BRANCH  10  11
ATOM     11  C   UNL     1       1.158  -0.268   0.000  0.00  0.00    +0.000 C 
BRANCH  11  12
ATOM     12  C   UNL     1       1.873   0.145   0.000  0.00  0.00    +0.000 C 
BRANCH  12  13
ATOM     13  C   UNL     1       2.587  -0.268   0.000  0.00  0.00    +0.000 C 
ATOM     14  O   UNL     1       3.302   0.145   0.000  0.00  0.00    +0.000 OA
ATOM     15  O   UNL     1       2.587  -1.093   0.000  0.00  0.00    +0.000 OA
ENDBRANCH  12  13
ENDBRANCH  11  12
ENDBRANCH  10  11
ENDBRANCH   6  10
TORSDOF 4
