REMARK  Name = SOG
REMARK  9 active torsions:
REMARK  status: ('A' for Active; 'I' for Inactive)
REMARK    1  A    between atoms: C_1  and  S_15
REMARK    2  A    between atoms: C_5  and  C_6
REMARK    3  A    between atoms: C_7  and  C_8
REMARK    4  A    between atoms: C_7  and  S_15
REMARK    5  A    between atoms: C_8  and  C_9
REMARK    6  A    between atoms: C_9  and  C_10
REMARK    7  A    between atoms: C_10  and  C_11
REMARK    8  A    between atoms: C_11  and  C_12
REMARK    9  A    between atoms: C_12  and  C_13
REMARK                            x       y       z     vdW  Elec       q    Type
REMARK                         _______ _______ _______ _____ _____    ______ ____
ROOT
ATOM      1  C   UNL     1       1.733   0.158   0.000  0.00  0.00    +0.000 C 
ATOM      2  C   UNL     1       2.448   0.571   0.000  0.00  0.00    +0.000 C 
ATOM      3  C   UNL     1       3.162   0.158   0.000  0.00  0.00    +0.000 C 
ATOM      4  C   UNL     1       3.162  -0.667   0.000  0.00  0.00    +0.000 C 
ATOM      5  C   UNL     1       2.448  -1.079   0.000  0.00  0.00    +0.000 C 
ATOM      6  O   UNL     1       2.448   1.396   0.000  0.00  0.00    +0.000 OA
ATOM      7  O   UNL     1       3.877   0.571   0.000  0.00  0.00    +0.000 OA
ATOM      8  O   UNL     1       3.877  -1.079   0.000  0.00  0.00    +0.000 OA
ATOM      9  O   UNL     1       1.733  -0.667   0.000  0.00  0.00    +0.000 OA
ENDROOT
BRANCH   5  10
ATOM     10  C   UNL     1       2.448  -1.904   0.000  0.00  0.00    +0.000 C 
ATOM     11  O   UNL     1       1.733  -2.317   0.000  0.00  0.00    +0.000 OA
ENDBRANCH   5  10
BRANCH   1  12
ATOM     12  S   UNL     1       1.019   0.571   0.000  0.00  0.00    +0.000 S 
BRANCH  12  13
ATOM     13  C   UNL     1       0.304   0.158   0.000  0.00  0.00    +0.000 C 
BRANCH  13  14
ATOM     14  C   UNL     1      -0.410   0.571   0.000  0.00  0.00    +0.000 C 
BRANCH  14  15
ATOM     15  C   UNL     1      -1.125   0.158   0.000  0.00  0.00    +0.000 C 
BRANCH  15  16
ATOM     16  C   UNL     1      -1.839   0.571   0.000  0.00  0.00    +0.000 C 
BRANCH  16  17
ATOM     17  C   UNL     1      -2.554   0.158   0.000  0.00  0.00    +0.000 C 
BRANCH  17  18
ATOM     18  C   UNL     1      -3.268   0.571   0.000  0.00  0.00    +0.000 C 
BRANCH  18  19
ATOM     19  C   UNL     1      -3.983   0.158   0.000  0.00  0.00    +0.000 C 
ATOM     20  C   UNL     1      -4.697   0.571   0.000  0.00  0.00    +0.000 C 
ENDBRANCH  18  19
ENDBRANCH  17  18
ENDBRANCH  16  17
ENDBRANCH  15  16
ENDBRANCH  14  15
ENDBRANCH  13  14
ENDBRANCH  12  13
ENDBRANCH   1  12
TORSDOF 9
