REMARK  Name = SOX
REMARK  4 active torsions:
REMARK  status: ('A' for Active; 'I' for Inactive)
REMARK    1  A    between atoms: CA_4  and  C_5
REMARK    2  A    between atoms: CA_13  and  N_14
REMARK    3  A    between atoms: C_15  and  C_17
REMARK    4  A    between atoms: C_17  and  C_18
REMARK                            x       y       z     vdW  Elec       q    Type
REMARK                         _______ _______ _______ _____ _____    ______ ____
ROOT
ATOM      1  O   UNL     1      -0.900   0.848   0.000  0.00  0.00    +0.000 OA
ATOM      2  C   UNL     1      -0.317   0.264   0.000  0.00  0.00    +0.000 C 
ATOM      3  N   UNL     1       0.508   0.264   0.000  0.00  0.00    +0.000 N 
ATOM      4  CA  UNL     1       1.292   0.519   0.000  0.00  0.00    +0.000 C 
ATOM      5  C   UNL     1       1.777  -0.148   0.000  0.00  0.00    +0.000 C 
ATOM      6  C   UNL     1       2.390   0.404   0.000  0.00  0.00    +0.000 C 
ATOM      7  C   UNL     1       2.390  -0.700   0.000  0.00  0.00    +0.000 C 
ATOM      8  S   UNL     1       1.292  -0.816   0.000  0.00  0.00    +0.000 S 
ATOM      9  C   UNL     1       0.508  -0.561   0.000  0.00  0.00    +0.000 C 
ATOM     10  CA  UNL     1      -0.317  -0.561   0.000  0.00  0.00    +0.000 C 
ATOM     11  O   UNL     1       1.548  -1.600   0.000  0.00  0.00    +0.000 OA
ATOM     12  H   UNL     1       1.991  -0.926   0.000  0.00  0.00    +0.000 HD
ENDROOT
BRANCH   4  13
ATOM     13  C   UNL     1       1.548   1.304   0.000  0.00  0.00    +0.000 C 
ATOM     14  O   UNL     1       2.354   1.476   0.000  0.00  0.00    +0.000 OA
ATOM     15  OXT UNL     1       0.995   1.917   0.000  0.00  0.00    +0.000 OA
ENDBRANCH   4  13
BRANCH  10  16
ATOM     16  N   UNL     1      -0.900  -1.144   0.000  0.00  0.00    +0.000 NA
ATOM     17  C   UNL     1      -1.697  -0.930   0.000  0.00  0.00    +0.000 C 
ATOM     18  O   UNL     1      -1.911  -0.134   0.000  0.00  0.00    +0.000 OA
BRANCH  17  19
ATOM     19  C   UNL     1      -2.281  -1.514   0.000  0.00  0.00    +0.000 C 
BRANCH  19  20
ATOM     20  C   UNL     1      -3.078  -1.300   0.000  0.00  0.00    +0.000 A 
ATOM     21  C   UNL     1      -3.661  -1.884   0.000  0.00  0.00    +0.000 A 
ATOM     22  C   UNL     1      -4.458  -1.670   0.000  0.00  0.00    +0.000 A 
ATOM     23  C   UNL     1      -4.671  -0.873   0.000  0.00  0.00    +0.000 A 
ATOM     24  C   UNL     1      -4.088  -0.290   0.000  0.00  0.00    +0.000 A 
ATOM     25  C   UNL     1      -3.291  -0.503   0.000  0.00  0.00    +0.000 A 
ENDBRANCH  19  20
ENDBRANCH  17  19
ENDBRANCH  10  16
TORSDOF 4
