REMARK  Name = SP0
REMARK  5 active torsions:
REMARK  status: ('A' for Active; 'I' for Inactive)
REMARK    1  A    between atoms: C_7  and  S_8
REMARK    2  A    between atoms: S_8  and  N_11
REMARK    3  A    between atoms: N_11  and  C_12
REMARK    4  A    between atoms: C_14  and  C_15
REMARK    5  A    between atoms: N_21  and  C_22
REMARK                            x       y       z     vdW  Elec       q    Type
REMARK                         _______ _______ _______ _____ _____    ______ ____
ROOT
ATOM      1  C   UNL     1      -0.405  -0.071   0.000  0.00  0.00    +0.000 A 
ATOM      2  C   UNL     1       0.262  -0.556   0.000  0.00  0.00    +0.000 A 
ATOM      3  C   UNL     1       0.007  -1.341   0.000  0.00  0.00    +0.000 A 
ATOM      4  N   UNL     1      -0.818  -1.341   0.000  0.00  0.00    +0.000 NA
ATOM      5  N   UNL     1      -1.073  -0.556   0.000  0.00  0.00    +0.000 N 
ENDROOT
BRANCH   5   6
ATOM      6  C   UNL     1      -1.857  -0.301   0.000  0.00  0.00    +0.000 A 
ATOM      7  C   UNL     1      -2.470  -0.854   0.000  0.00  0.00    +0.000 A 
ATOM      8  C   UNL     1      -3.255  -0.599   0.000  0.00  0.00    +0.000 A 
ATOM      9  C   UNL     1      -3.427   0.208   0.000  0.00  0.00    +0.000 A 
ATOM     10  F   UNL     1      -4.211   0.463   0.000  0.00  0.00    +0.000 F 
ATOM     11  C   UNL     1      -2.813   0.760   0.000  0.00  0.00    +0.000 A 
ATOM     12  C   UNL     1      -2.029   0.505   0.000  0.00  0.00    +0.000 A 
ENDBRANCH   5   6
BRANCH   3  13
ATOM     13  C   UNL     1       0.492  -2.009   0.000  0.00  0.00    +0.000 A 
ATOM     14  C   UNL     1       1.317  -2.009   0.000  0.00  0.00    +0.000 A 
ATOM     15  C   UNL     1       1.572  -2.793   0.000  0.00  0.00    +0.000 A 
ATOM     16  C   UNL     1       0.905  -3.278   0.000  0.00  0.00    +0.000 A 
ATOM     17  S   UNL     1       0.237  -2.793   0.000  0.00  0.00    +0.000 S 
ENDBRANCH   3  13
BRANCH   1  18
ATOM     18  N   UNL     1      -0.405   0.753   0.000  0.00  0.00    +0.000 NA
BRANCH  18  19
ATOM     19  S   UNL     1       0.309   1.166   0.000  0.00  0.00    +0.000 S 
ATOM     20  O   UNL     1      -0.103   1.881   0.000  0.00  0.00    +0.000 OA
ATOM     21  O   UNL     1       0.722   0.452   0.000  0.00  0.00    +0.000 OA
BRANCH  19  28
ATOM     22  C   UNL     1       1.024   2.404   0.000  0.00  0.00    +0.000 A 
ATOM     23  C   UNL     1       1.738   2.816   0.000  0.00  0.00    +0.000 A 
ATOM     24  F   UNL     1       1.738   3.641   0.000  0.00  0.00    +0.000 F 
ATOM     25  C   UNL     1       2.453   2.404   0.000  0.00  0.00    +0.000 A 
ATOM     26  C   UNL     1       2.453   1.579   0.000  0.00  0.00    +0.000 A 
ATOM     27  C   UNL     1       1.738   1.166   0.000  0.00  0.00    +0.000 A 
ATOM     28  C   UNL     1       1.024   1.579   0.000  0.00  0.00    +0.000 A 
ENDBRANCH  19  28
ENDBRANCH  18  19
ENDBRANCH   1  18
TORSDOF 5
