REMARK  Name = SP6
REMARK  6 active torsions:
REMARK  status: ('A' for Active; 'I' for Inactive)
REMARK    1  A    between atoms: C_2  and  C_12
REMARK    2  A    between atoms: C_2  and  N_27
REMARK    3  A    between atoms: C_5  and  C_6
REMARK    4  A    between atoms: C_5  and  O_14
REMARK    5  A    between atoms: C_11  and  C_15
REMARK    6  A    between atoms: O_14  and  C_15
REMARK                            x       y       z     vdW  Elec       q    Type
REMARK                         _______ _______ _______ _____ _____    ______ ____
ROOT
ATOM      1  N   UNL     1       0.521   0.642   0.000  0.00  0.00    +0.000 N 
ATOM      2  C   UNL     1       1.235   0.229   0.000  0.00  0.00    +0.000 A 
ATOM      3  C   UNL     1      -0.264   0.387   0.000  0.00  0.00    +0.000 A 
ATOM      4  C   UNL     1      -0.749   1.054   0.000  0.00  0.00    +0.000 A 
ATOM      5  C   UNL     1       0.521   1.467   0.000  0.00  0.00    +0.000 A 
ATOM      6  S   UNL     1      -0.264   1.722   0.000  0.00  0.00    +0.000 S 
ATOM      7  C   UNL     1       1.235   1.879   0.000  0.00  0.00    +0.000 A 
ATOM      8  C   UNL     1       1.950   1.467   0.000  0.00  0.00    +0.000 A 
ATOM      9  O   UNL     1       2.664   1.879   0.000  0.00  0.00    +0.000 OA
ATOM     10  O   UNL     1       1.235  -0.596   0.000  0.00  0.00    +0.000 OA
ATOM     11  N   UNL     1       1.950   0.642   0.000  0.00  0.00    +0.000 N 
ENDROOT
BRANCH   4  12
ATOM     12  C   UNL     1      -1.574   1.054   0.000  0.00  0.00    +0.000 C 
ATOM     13  O   UNL     1      -1.986   1.769   0.000  0.00  0.00    +0.000 OA
BRANCH  12  14
ATOM     14  O   UNL     1      -1.986   0.340   0.000  0.00  0.00    +0.000 OA
BRANCH  14  15
ATOM     15  C   UNL     1      -2.811   0.340   0.000  0.00  0.00    +0.000 C 
BRANCH  15  16
ATOM     16  C   UNL     1      -3.224  -0.375   0.000  0.00  0.00    +0.000 A 
ATOM     17  C   UNL     1      -4.049  -0.375   0.000  0.00  0.00    +0.000 A 
ATOM     18  C   UNL     1      -4.461  -1.089   0.000  0.00  0.00    +0.000 A 
ATOM     19  C   UNL     1      -2.811  -1.089   0.000  0.00  0.00    +0.000 A 
ATOM     20  C   UNL     1      -3.224  -1.804   0.000  0.00  0.00    +0.000 A 
ATOM     21  C   UNL     1      -4.049  -1.804   0.000  0.00  0.00    +0.000 A 
ENDBRANCH  15  16
ENDBRANCH  14  15
ENDBRANCH  12  14
ENDBRANCH   4  12
BRANCH  11  22
ATOM     22  C   UNL     1       2.664   0.229   0.000  0.00  0.00    +0.000 C 
BRANCH  22  27
ATOM     23  C   UNL     1       4.808   1.467   0.000  0.00  0.00    +0.000 A 
ATOM     24  C   UNL     1       4.808   0.642   0.000  0.00  0.00    +0.000 A 
ATOM     25  C   UNL     1       4.093   0.229   0.000  0.00  0.00    +0.000 A 
ATOM     26  C   UNL     1       3.379   1.467   0.000  0.00  0.00    +0.000 A 
ATOM     27  C   UNL     1       3.379   0.642   0.000  0.00  0.00    +0.000 A 
ATOM     28  C   UNL     1       4.093   1.879   0.000  0.00  0.00    +0.000 A 
ENDBRANCH  22  27
ENDBRANCH  11  22
TORSDOF 6
