REMARK  Name = SPB
REMARK  7 active torsions:
REMARK  status: ('A' for Active; 'I' for Inactive)
REMARK    1  A    between atoms: C_6  and  C_7
REMARK    2  A    between atoms: C_8  and  C_9
REMARK    3  A    between atoms: C_12  and  N_15
REMARK    4  A    between atoms: C_16  and  C_17
REMARK    5  A    between atoms: C_17  and  C_18
REMARK    6  A    between atoms: C_18  and  C_19
REMARK    7  A    between atoms: C_19  and  C_20
REMARK                            x       y       z     vdW  Elec       q    Type
REMARK                         _______ _______ _______ _____ _____    ______ ____
ROOT
ATOM      1  C   UNL     1      -1.272   0.165   0.000  0.00  0.00    +0.000 A 
ATOM      2  C   UNL     1      -1.272   0.990   0.000  0.00  0.00    +0.000 A 
ATOM      3  C   UNL     1      -0.558   1.403   0.000  0.00  0.00    +0.000 A 
ATOM      4  C   UNL     1       0.157   0.990   0.000  0.00  0.00    +0.000 A 
ATOM      5  C   UNL     1       0.157   0.165   0.000  0.00  0.00    +0.000 A 
ATOM      6  C   UNL     1      -0.558  -0.247   0.000  0.00  0.00    +0.000 A 
ENDROOT
BRANCH   4   7
ATOM      7  N   UNL     1       0.871   1.403   0.000  0.00  0.00    +0.000 NA
ATOM      8  C   UNL     1       1.586   0.990   0.000  0.00  0.00    +0.000 C 
ATOM      9  O   UNL     1       1.586   0.165   0.000  0.00  0.00    +0.000 OA
BRANCH   8  10
ATOM     10  C   UNL     1       2.300   1.403   0.000  0.00  0.00    +0.000 C 
BRANCH  10  11
ATOM     11  C   UNL     1       3.014   0.990   0.000  0.00  0.00    +0.000 C 
BRANCH  11  12
ATOM     12  C   UNL     1       3.729   1.403   0.000  0.00  0.00    +0.000 C 
BRANCH  12  13
ATOM     13  C   UNL     1       4.444   0.990   0.000  0.00  0.00    +0.000 C 
ATOM     14  O   UNL     1       5.158   1.403   0.000  0.00  0.00    +0.000 OA
ATOM     15  O   UNL     1       4.444   0.165   0.000  0.00  0.00    +0.000 OA
ENDBRANCH  12  13
ENDBRANCH  11  12
ENDBRANCH  10  11
ENDBRANCH   8  10
ENDBRANCH   4   7
BRANCH   1  17
ATOM     16  C   UNL     1      -1.987  -1.072   0.000  0.00  0.00    +0.000 C 
ATOM     17  C   UNL     1      -1.987  -0.247   0.000  0.00  0.00    +0.000 C 
BRANCH  16  23
ATOM     18  C   UNL     1      -2.701  -2.310   0.000  0.00  0.00    +0.000 A 
ATOM     19  C   UNL     1      -3.416  -2.722   0.000  0.00  0.00    +0.000 A 
ATOM     20  C   UNL     1      -4.130  -2.310   0.000  0.00  0.00    +0.000 A 
ATOM     21  C   UNL     1      -4.130  -1.485   0.000  0.00  0.00    +0.000 A 
ATOM     22  C   UNL     1      -3.416  -1.072   0.000  0.00  0.00    +0.000 A 
ATOM     23  C   UNL     1      -2.701  -1.485   0.000  0.00  0.00    +0.000 A 
ENDBRANCH  16  23
ENDBRANCH   1  17
TORSDOF 7
