REMARK  Name = SPI
REMARK  7 active torsions:
REMARK  status: ('A' for Active; 'I' for Inactive)
REMARK    1  A    between atoms: S_1  and  C_4
REMARK    2  A    between atoms: S_1  and  N_12
REMARK    3  A    between atoms: C_7  and  O_10
REMARK    4  A    between atoms: C_13  and  C_28
REMARK    5  A    between atoms: C_18  and  O_20
REMARK    6  A    between atoms: O_20  and  C_21
REMARK    7  A    between atoms: C_21  and  C_22
REMARK                            x       y       z     vdW  Elec       q    Type
REMARK                         _______ _______ _______ _____ _____    ______ ____
ROOT
ATOM      1  N   UNL     1      -0.094  -0.563   0.000  0.00  0.00    +0.000 NA
ATOM      2  C   UNL     1      -0.809  -0.150   0.000  0.00  0.00    +0.000 C 
ATOM      3  C   UNL     1      -0.809   0.675   0.000  0.00  0.00    +0.000 C 
ATOM      4  N   UNL     1      -0.094   1.087   0.000  0.00  0.00    +0.000 N 
ATOM      5  C   UNL     1       0.620   0.675   0.000  0.00  0.00    +0.000 C 
ATOM      6  C   UNL     1       0.620  -0.150   0.000  0.00  0.00    +0.000 C 
ATOM      7  C   UNL     1      -0.094   1.912   0.000  0.00  0.00    +0.000 C 
ATOM      8  O   UNL     1      -0.809   2.325   0.000  0.00  0.00    +0.000 OA
ENDROOT
BRANCH   2   9
ATOM      9  C   UNL     1      -1.523  -0.563   0.000  0.00  0.00    +0.000 C 
ATOM     10  N   UNL     1      -1.523  -1.388   0.000  0.00  0.00    +0.000 NA
ATOM     11  O   UNL     1      -2.238  -1.800   0.000  0.00  0.00    +0.000 OA
ATOM     12  O   UNL     1      -2.238  -0.150   0.000  0.00  0.00    +0.000 OA
ENDBRANCH   2   9
BRANCH   1  13
ATOM     13  S   UNL     1      -0.094  -1.388   0.000  0.00  0.00    +0.000 S 
ATOM     14  O   UNL     1       0.731  -1.388   0.000  0.00  0.00    +0.000 OA
ATOM     15  O   UNL     1      -0.919  -1.388   0.000  0.00  0.00    +0.000 OA
BRANCH  13  16
ATOM     16  C   UNL     1      -0.094  -2.213   0.000  0.00  0.00    +0.000 A 
ATOM     17  C   UNL     1       0.620  -2.625   0.000  0.00  0.00    +0.000 A 
ATOM     18  C   UNL     1       0.620  -3.450   0.000  0.00  0.00    +0.000 A 
ATOM     19  C   UNL     1      -0.094  -3.863   0.000  0.00  0.00    +0.000 A 
ATOM     20  C   UNL     1      -0.809  -3.450   0.000  0.00  0.00    +0.000 A 
ATOM     21  C   UNL     1      -0.809  -2.625   0.000  0.00  0.00    +0.000 A 
BRANCH  19  22
ATOM     22  O   UNL     1      -0.094  -4.688   0.000  0.00  0.00    +0.000 OA
ATOM     23  C   UNL     1      -0.809  -5.100   0.000  0.00  0.00    +0.000 C 
ENDBRANCH  19  22
ENDBRANCH  13  16
ENDBRANCH   1  13
BRANCH   7  24
ATOM     24  O   UNL     1       0.620   2.325   0.000  0.00  0.00    +0.000 OA
BRANCH  24  25
ATOM     25  C   UNL     1       0.620   3.150   0.000  0.00  0.00    +0.000 C 
BRANCH  25  26
ATOM     26  C   UNL     1       1.335   3.562   0.000  0.00  0.00    +0.000 A 
ATOM     27  C   UNL     1       1.335   4.387   0.000  0.00  0.00    +0.000 A 
ATOM     28  C   UNL     1       2.049   4.800   0.000  0.00  0.00    +0.000 A 
ATOM     29  C   UNL     1       2.764   4.387   0.000  0.00  0.00    +0.000 A 
ATOM     30  C   UNL     1       2.764   3.562   0.000  0.00  0.00    +0.000 A 
ATOM     31  C   UNL     1       2.049   3.150   0.000  0.00  0.00    +0.000 A 
ENDBRANCH  25  26
ENDBRANCH  24  25
ENDBRANCH   7  24
TORSDOF 7
