REMARK  Name = SR2
REMARK  5 active torsions:
REMARK  status: ('A' for Active; 'I' for Inactive)
REMARK    1  A    between atoms: C_7  and  N_8
REMARK    2  A    between atoms: C_18  and  N_19
REMARK    3  A    between atoms: C_20  and  C_22
REMARK    4  A    between atoms: C_23  and  C_24
REMARK    5  A    between atoms: C_24  and  N_25
REMARK                            x       y       z     vdW  Elec       q    Type
REMARK                         _______ _______ _______ _____ _____    ______ ____
ROOT
ATOM      1  N   UNL     1      -3.002  -1.390   0.000  0.00  0.00    +0.000 NA
ATOM      2  C   UNL     1      -3.002  -0.565   0.000  0.00  0.00    +0.000 A 
ATOM      3  C   UNL     1      -2.287  -0.152   0.000  0.00  0.00    +0.000 A 
ATOM      4  C   UNL     1      -1.573  -0.565   0.000  0.00  0.00    +0.000 A 
ATOM      5  N   UNL     1      -3.716  -0.152   0.000  0.00  0.00    +0.000 NA
ATOM      6  C   UNL     1      -3.716   0.673   0.000  0.00  0.00    +0.000 A 
ATOM      7  N   UNL     1      -3.002   1.085   0.000  0.00  0.00    +0.000 NA
ATOM      8  C   UNL     1      -2.287   0.673   0.000  0.00  0.00    +0.000 A 
ATOM      9  C   UNL     1      -1.573   1.085   0.000  0.00  0.00    +0.000 A 
ATOM     10  C   UNL     1      -0.858   0.673   0.000  0.00  0.00    +0.000 A 
ATOM     11  C   UNL     1      -0.858  -0.152   0.000  0.00  0.00    +0.000 A 
ENDROOT
BRANCH   1  18
ATOM     12  C   UNL     1      -4.431  -1.390   0.000  0.00  0.00    +0.000 A 
ATOM     13  C   UNL     1      -5.145  -1.802   0.000  0.00  0.00    +0.000 A 
ATOM     14 BR   UNL     1      -5.859  -1.390   0.000  0.00  0.00    +0.000 Br
ATOM     15  C   UNL     1      -5.145  -2.627   0.000  0.00  0.00    +0.000 A 
ATOM     16  C   UNL     1      -4.431  -3.040   0.000  0.00  0.00    +0.000 A 
ATOM     17  C   UNL     1      -3.716  -2.627   0.000  0.00  0.00    +0.000 A 
ATOM     18  C   UNL     1      -3.716  -1.802   0.000  0.00  0.00    +0.000 A 
ENDBRANCH   1  18
BRANCH  11  19
ATOM     19  N   UNL     1      -0.144  -0.565   0.000  0.00  0.00    +0.000 NA
ATOM     20  C   UNL     1       0.571  -0.152   0.000  0.00  0.00    +0.000 C 
ATOM     21  O   UNL     1       1.285  -0.565   0.000  0.00  0.00    +0.000 OA
BRANCH  20  22
ATOM     22  C   UNL     1       0.571   0.673   0.000  0.00  0.00    +0.000 C 
ATOM     23  C   UNL     1       1.285   1.085   0.000  0.00  0.00    +0.000 C 
BRANCH  23  24
ATOM     24  C   UNL     1       1.285   1.910   0.000  0.00  0.00    +0.000 C 
BRANCH  24  25
ATOM     25  N   UNL     1       2.000   2.323   0.000  0.00  0.00    +0.000 NA
ATOM     26  C   UNL     1       2.000   3.148   0.000  0.00  0.00    +0.000 C 
ATOM     27  C   UNL     1       2.714   1.910   0.000  0.00  0.00    +0.000 C 
ENDBRANCH  24  25
ENDBRANCH  23  24
ENDBRANCH  20  22
ENDBRANCH  11  19
TORSDOF 5
