REMARK  Name = SS4
REMARK  6 active torsions:
REMARK  status: ('A' for Active; 'I' for Inactive)
REMARK    1  A    between atoms: C_10  and  C_26
REMARK    2  A    between atoms: C_11  and  C_15
REMARK    3  A    between atoms: C_13  and  O_24
REMARK    4  A    between atoms: C_14  and  O_24
REMARK    5  A    between atoms: C_14  and  C_25
REMARK    6  A    between atoms: C_25  and  C_26
REMARK                            x       y       z     vdW  Elec       q    Type
REMARK                         _______ _______ _______ _____ _____    ______ ____
ROOT
ATOM      1  N   UNL     1       1.472   1.685   0.000  0.00  0.00    +0.000 NA
ATOM      2  C   UNL     1       0.043   1.685   0.000  0.00  0.00    +0.000 A 
ATOM      3  C   UNL     1       0.043   0.860   0.000  0.00  0.00    +0.000 A 
ATOM      4  C   UNL     1       0.757   0.448   0.000  0.00  0.00    +0.000 A 
ATOM      5  C   UNL     1       1.472   0.860   0.000  0.00  0.00    +0.000 A 
ATOM      6  C   UNL     1       0.757   2.098   0.000  0.00  0.00    +0.000 A 
ENDROOT
BRANCH   2  13
ATOM      7  N   UNL     1      -3.370   2.510   0.000  0.00  0.00    +0.000 NA
ATOM      8  C   UNL     1      -2.101   2.923   0.000  0.00  0.00    +0.000 A 
ATOM      9  C   UNL     1      -1.386   3.335   0.000  0.00  0.00    +0.000 A 
ATOM     10  C   UNL     1      -0.672   2.923   0.000  0.00  0.00    +0.000 A 
ATOM     11  C   UNL     1      -2.885   1.843   0.000  0.00  0.00    +0.000 A 
ATOM     12  C   UNL     1      -3.140   1.058   0.000  0.00  0.00    +0.000 C 
ATOM     13  C   UNL     1      -0.672   2.098   0.000  0.00  0.00    +0.000 A 
ATOM     14  C   UNL     1      -1.386   1.685   0.000  0.00  0.00    +0.000 A 
ATOM     15  C   UNL     1      -2.101   2.098   0.000  0.00  0.00    +0.000 A 
ATOM     16  N   UNL     1      -2.885   3.178   0.000  0.00  0.00    +0.000 NA
ENDBRANCH   2  13
BRANCH   4  17
ATOM     17  O   UNL     1       0.757  -0.377   0.000  0.00  0.00    +0.000 OA
BRANCH  17  18
ATOM     18  C   UNL     1       0.043  -0.790   0.000  0.00  0.00    +0.000 C 
BRANCH  18  19
ATOM     19  C   UNL     1       0.043  -1.615   0.000  0.00  0.00    +0.000 C 
ATOM     20  N   UNL     1       0.757  -2.027   0.000  0.00  0.00    +0.000 NA
BRANCH  19  21
ATOM     21  C   UNL     1      -0.672  -2.027   0.000  0.00  0.00    +0.000 C 
BRANCH  21  24
ATOM     22  C   UNL     1      -1.386  -3.265   0.000  0.00  0.00    +0.000 A 
ATOM     23  C   UNL     1      -0.672  -4.502   0.000  0.00  0.00    +0.000 A 
ATOM     24  C   UNL     1      -0.672  -2.852   0.000  0.00  0.00    +0.000 A 
ATOM     25  C   UNL     1      -1.386  -4.090   0.000  0.00  0.00    +0.000 A 
ATOM     26  C   UNL     1       0.043  -3.265   0.000  0.00  0.00    +0.000 A 
ATOM     27  C   UNL     1       0.043  -4.090   0.000  0.00  0.00    +0.000 A 
ATOM     28 BR   UNL     1      -0.672  -5.327   0.000  0.00  0.00    +0.000 Br
ENDBRANCH  21  24
ENDBRANCH  19  21
ENDBRANCH  18  19
ENDBRANCH  17  18
ENDBRANCH   4  17
TORSDOF 6
