REMARK  Name = ST1
REMARK  3 active torsions:
REMARK  status: ('A' for Active; 'I' for Inactive)
REMARK    1  A    between atoms: C_1  and  C_4
REMARK    2  A    between atoms: C_8  and  N_9
REMARK    3  A    between atoms: C_13  and  N_14
REMARK                            x       y       z     vdW  Elec       q    Type
REMARK                         _______ _______ _______ _____ _____    ______ ____
ROOT
ATOM      1  C   UNL     1       2.534  -0.122   0.000  0.00  0.00    +0.000 A 
ATOM      2  C   UNL     1       2.534  -0.947   0.000  0.00  0.00    +0.000 A 
ATOM      3  C   UNL     1       1.819  -1.359   0.000  0.00  0.00    +0.000 A 
ATOM      4  O   UNL     1       1.819  -2.184   0.000  0.00  0.00    +0.000 OA
ATOM      5  C   UNL     1       1.105  -0.947   0.000  0.00  0.00    +0.000 A 
ATOM      6  C   UNL     1       1.105  -0.122   0.000  0.00  0.00    +0.000 A 
ATOM      7  C   UNL     1       1.819   0.291   0.000  0.00  0.00    +0.000 A 
ENDROOT
BRANCH   5   8
ATOM      8  N   UNL     1       0.391  -1.359   0.000  0.00  0.00    +0.000 NA
ATOM      9  C   UNL     1       0.391  -2.184   0.000  0.00  0.00    +0.000 C 
ATOM     10  O   UNL     1       1.105  -2.597   0.000  0.00  0.00    +0.000 OA
ATOM     11  C   UNL     1      -0.324  -2.597   0.000  0.00  0.00    +0.000 C 
ENDBRANCH   5   8
BRANCH   1  12
ATOM     12  C   UNL     1       3.248   0.291   0.000  0.00  0.00    +0.000 C 
ATOM     13  O   UNL     1       3.963  -0.122   0.000  0.00  0.00    +0.000 OA
ATOM     14  O   UNL     1       3.248   1.116   0.000  0.00  0.00    +0.000 OA
ENDBRANCH   1  12
BRANCH   6  15
ATOM     15  N   UNL     1       0.391   0.291   0.000  0.00  0.00    +0.000 N 
ATOM     16  O   UNL     1       0.391   1.116   0.000  0.00  0.00    +0.000 OA
ATOM     17  O   UNL     1      -0.324  -0.122   0.000  0.00  0.00    +0.000 OA
ENDBRANCH   6  15
TORSDOF 3
