REMARK  Name = ST3
REMARK  2 active torsions:
REMARK  status: ('A' for Active; 'I' for Inactive)
REMARK    1  A    between atoms: C_1  and  C_4
REMARK    2  A    between atoms: C_8  and  N_9
REMARK                            x       y       z     vdW  Elec       q    Type
REMARK                         _______ _______ _______ _____ _____    ______ ____
ROOT
ATOM      1  C   UNL     1       1.038   0.482   0.000  0.00  0.00    +0.000 A 
ATOM      2  C   UNL     1       1.038  -0.343   0.000  0.00  0.00    +0.000 A 
ATOM      3  C   UNL     1       0.324  -0.756   0.000  0.00  0.00    +0.000 A 
ATOM      4  N   UNL     1       0.324  -1.581   0.000  0.00  0.00    +0.000 NA
ATOM      5  C   UNL     1      -0.391  -0.343   0.000  0.00  0.00    +0.000 A 
ATOM      6  C   UNL     1      -0.391   0.482   0.000  0.00  0.00    +0.000 A 
ATOM      7  C   UNL     1       0.324   0.894   0.000  0.00  0.00    +0.000 A 
ENDROOT
BRANCH   5   8
ATOM      8  N   UNL     1      -1.105  -0.756   0.000  0.00  0.00    +0.000 NA
ATOM      9  C   UNL     1      -1.819  -0.343   0.000  0.00  0.00    +0.000 C 
ATOM     10  O   UNL     1      -2.534  -0.756   0.000  0.00  0.00    +0.000 OA
ATOM     11  C   UNL     1      -1.819   0.482   0.000  0.00  0.00    +0.000 C 
ENDBRANCH   5   8
BRANCH   1  12
ATOM     12  C   UNL     1       1.753   0.894   0.000  0.00  0.00    +0.000 C 
ATOM     13  O   UNL     1       1.753   1.719   0.000  0.00  0.00    +0.000 OA
ATOM     14  O   UNL     1       2.467   0.482   0.000  0.00  0.00    +0.000 OA
ENDBRANCH   1  12
TORSDOF 2
