REMARK  Name = ST8
REMARK  6 active torsions:
REMARK  status: ('A' for Active; 'I' for Inactive)
REMARK    1  A    between atoms: C_2  and  C_3
REMARK    2  A    between atoms: C_2  and  O_16
REMARK    3  A    between atoms: C_10  and  C_25
REMARK    4  A    between atoms: C_15  and  O_16
REMARK    5  A    between atoms: C_17  and  N_18
REMARK    6  A    between atoms: N_22  and  C_23
REMARK                            x       y       z     vdW  Elec       q    Type
REMARK                         _______ _______ _______ _____ _____    ______ ____
ROOT
ATOM      1  C   UNL     1       0.487   0.871   0.000  0.00  0.00    +0.000 A 
ATOM      2  N   UNL     1       0.487   0.046   0.000  0.00  0.00    +0.000 NA
ATOM      3  C   UNL     1      -0.228  -0.366   0.000  0.00  0.00    +0.000 A 
ATOM      4  C   UNL     1      -0.942   0.046   0.000  0.00  0.00    +0.000 A 
ATOM      5  N   UNL     1      -1.657   1.284   0.000  0.00  0.00    +0.000 NA
ATOM      6  C   UNL     1      -0.942   0.871   0.000  0.00  0.00    +0.000 A 
ATOM      7  N   UNL     1      -0.228   1.284   0.000  0.00  0.00    +0.000 NA
ATOM      8  N   UNL     1       1.201   1.284   0.000  0.00  0.00    +0.000 NA
ENDROOT
BRANCH   8  13
ATOM      9  C   UNL     1       0.487   3.346   0.000  0.00  0.00    +0.000 A 
ATOM     10  C   UNL     1       1.201   3.759   0.000  0.00  0.00    +0.000 A 
ATOM     11  C   UNL     1       1.915   3.346   0.000  0.00  0.00    +0.000 A 
ATOM     12  C   UNL     1       1.915   2.521   0.000  0.00  0.00    +0.000 A 
ATOM     13  C   UNL     1       1.201   2.108   0.000  0.00  0.00    +0.000 A 
ATOM     14  C   UNL     1       0.487   2.521   0.000  0.00  0.00    +0.000 A 
BRANCH  10  16
ATOM     15  N   UNL     1       0.487   4.996   0.000  0.00  0.00    +0.000 NA
ATOM     16  C   UNL     1       1.201   4.583   0.000  0.00  0.00    +0.000 C 
ATOM     17  O   UNL     1       1.915   4.996   0.000  0.00  0.00    +0.000 OA
ENDBRANCH  10  16
ENDBRANCH   8  13
BRANCH   4  18
ATOM     18  N   UNL     1      -1.657  -0.366   0.000  0.00  0.00    +0.000 NA
ATOM     19  O   UNL     1      -2.371   0.046   0.000  0.00  0.00    +0.000 OA
ENDBRANCH   4  18
BRANCH   3  20
ATOM     20  O   UNL     1      -0.228  -1.192   0.000  0.00  0.00    +0.000 OA
BRANCH  20  21
ATOM     21  C   UNL     1      -0.942  -1.604   0.000  0.00  0.00    +0.000 C 
BRANCH  21  22
ATOM     22  C   UNL     1      -0.942  -2.429   0.000  0.00  0.00    +0.000 C 
ATOM     23  C   UNL     1      -0.228  -2.841   0.000  0.00  0.00    +0.000 C 
ATOM     24  C   UNL     1      -0.228  -3.667   0.000  0.00  0.00    +0.000 C 
ATOM     25  C   UNL     1      -0.942  -4.079   0.000  0.00  0.00    +0.000 C 
ATOM     26  C   UNL     1      -1.657  -3.667   0.000  0.00  0.00    +0.000 C 
ATOM     27  C   UNL     1      -1.657  -2.841   0.000  0.00  0.00    +0.000 C 
ENDBRANCH  21  22
ENDBRANCH  20  21
ENDBRANCH   3  20
TORSDOF 6
