REMARK  Name = STB
REMARK  8 active torsions:
REMARK  status: ('A' for Active; 'I' for Inactive)
REMARK    1  A    between atoms: C_1  and  C_7
REMARK    2  A    between atoms: C_4  and  S_17
REMARK    3  A    between atoms: N_9  and  C_10
REMARK    4  A    between atoms: C_10  and  C_11
REMARK    5  A    between atoms: C_11  and  C_12
REMARK    6  A    between atoms: C_12  and  C_13
REMARK    7  A    between atoms: C_13  and  N_14
REMARK    8  A    between atoms: N_14  and  C_15
REMARK                            x       y       z     vdW  Elec       q    Type
REMARK                         _______ _______ _______ _____ _____    ______ ____
ROOT
ATOM      1  C   UNL     1      -1.609  -0.098   0.000  0.00  0.00    +0.000 A 
ATOM      2  C   UNL     1      -2.324  -0.511   0.000  0.00  0.00    +0.000 A 
ATOM      3  C   UNL     1      -3.038  -0.098   0.000  0.00  0.00    +0.000 A 
ATOM      4  C   UNL     1      -3.038   0.727   0.000  0.00  0.00    +0.000 A 
ATOM      5  C   UNL     1      -2.324   1.139   0.000  0.00  0.00    +0.000 A 
ATOM      6  C   UNL     1      -1.609   0.727   0.000  0.00  0.00    +0.000 A 
ENDROOT
BRANCH   4   7
ATOM      7  S   UNL     1      -3.752   1.139   0.000  0.00  0.00    +0.000 S 
ATOM      8  O   UNL     1      -4.467   1.552   0.000  0.00  0.00    +0.000 OA
ATOM      9  O   UNL     1      -3.340   1.854   0.000  0.00  0.00    +0.000 OA
ATOM     10  N   UNL     1      -4.165   0.425   0.000  0.00  0.00    +0.000 NA
ENDBRANCH   4   7
BRANCH   1  11
ATOM     11  C   UNL     1      -0.895  -0.511   0.000  0.00  0.00    +0.000 C 
ATOM     12  O   UNL     1      -0.895  -1.336   0.000  0.00  0.00    +0.000 OA
ATOM     13  N   UNL     1      -0.180  -0.098   0.000  0.00  0.00    +0.000 NA
BRANCH  13  14
ATOM     14  C   UNL     1       0.534  -0.511   0.000  0.00  0.00    +0.000 C 
BRANCH  14  15
ATOM     15  C   UNL     1       1.249  -0.098   0.000  0.00  0.00    +0.000 C 
BRANCH  15  16
ATOM     16  C   UNL     1       1.963  -0.511   0.000  0.00  0.00    +0.000 C 
BRANCH  16  17
ATOM     17  C   UNL     1       2.678  -0.098   0.000  0.00  0.00    +0.000 C 
BRANCH  17  18
ATOM     18  N   UNL     1       3.392  -0.511   0.000  0.00  0.00    +0.000 NA
BRANCH  18  19
ATOM     19  C   UNL     1       4.107  -0.098   0.000  0.00  0.00    +0.000 C 
ATOM     20  S   UNL     1       4.821  -0.511   0.000  0.00  0.00    +0.000 S 
ENDBRANCH  18  19
ENDBRANCH  17  18
ENDBRANCH  16  17
ENDBRANCH  15  16
ENDBRANCH  14  15
ENDBRANCH  13  14
ENDBRANCH   1  11
TORSDOF 8
