REMARK  Name = STC
REMARK  4 active torsions:
REMARK  status: ('A' for Active; 'I' for Inactive)
REMARK    1  A    between atoms: N_1  and  C_2
REMARK    2  A    between atoms: N_1  and  S_9
REMARK    3  A    between atoms: S_9  and  C_10
REMARK    4  A    between atoms: C_13  and  C_16
REMARK                            x       y       z     vdW  Elec       q    Type
REMARK                         _______ _______ _______ _____ _____    ______ ____
ROOT
ATOM      1  S   UNL     1       0.460  -0.229   0.000  0.00  0.00    +0.000 S 
ATOM      2  O   UNL     1      -0.365  -0.229   0.000  0.00  0.00    +0.000 OA
ATOM      3  O   UNL     1       1.285  -0.229   0.000  0.00  0.00    +0.000 OA
ENDROOT
BRANCH   1   4
ATOM      4  C   UNL     1       0.460  -1.054   0.000  0.00  0.00    +0.000 A 
ATOM      5  C   UNL     1       1.127  -1.539   0.000  0.00  0.00    +0.000 A 
ATOM      6  C   UNL     1      -0.207  -1.539   0.000  0.00  0.00    +0.000 A 
ATOM      7  S   UNL     1       0.873  -2.324   0.000  0.00  0.00    +0.000 S 
ATOM      8  C   UNL     1       0.048  -2.324   0.000  0.00  0.00    +0.000 A 
BRANCH   5   9
ATOM      9  C   UNL     1       1.912  -1.284   0.000  0.00  0.00    +0.000 C 
ATOM     10  O   UNL     1       2.083  -0.477   0.000  0.00  0.00    +0.000 OA
ATOM     11  O   UNL     1       2.525  -1.836   0.000  0.00  0.00    +0.000 OA
ENDBRANCH   5   9
ENDBRANCH   1   4
BRANCH   1  12
ATOM     12  N   UNL     1       0.460   0.596   0.000  0.00  0.00    +0.000 NA
BRANCH  12  13
ATOM     13  C   UNL     1      -0.255   1.008   0.000  0.00  0.00    +0.000 A 
ATOM     14  C   UNL     1      -0.969   0.596   0.000  0.00  0.00    +0.000 A 
ATOM     15  C   UNL     1      -0.255   1.833   0.000  0.00  0.00    +0.000 A 
ATOM     16  C   UNL     1      -1.683   1.008   0.000  0.00  0.00    +0.000 A 
ATOM     17  C   UNL     1      -0.969   2.246   0.000  0.00  0.00    +0.000 A 
ATOM     18  C   UNL     1      -1.683   1.833   0.000  0.00  0.00    +0.000 A 
ATOM     19 CL   UNL     1      -2.398   2.246   0.000  0.00  0.00    +0.000 Cl
ENDBRANCH  12  13
ENDBRANCH   1  12
TORSDOF 4
