REMARK  Name = STN
REMARK  5 active torsions:
REMARK  status: ('A' for Active; 'I' for Inactive)
REMARK    1  A    between atoms: C_2  and  C_5
REMARK    2  A    between atoms: C_3  and  C_4
REMARK    3  A    between atoms: C_3  and  N_10
REMARK    4  A    between atoms: C_4  and  C_5
REMARK    5  A    between atoms: C_4  and  C_7
REMARK                            x       y       z     vdW  Elec       q    Type
REMARK                         _______ _______ _______ _____ _____    ______ ____
ROOT
ATOM      1  C   UNL     1       0.082  -0.046   0.000  0.00  0.00    +0.000 C 
ENDROOT
BRANCH   1   2
ATOM      2  C   UNL     1       0.082   0.778   0.000  0.00  0.00    +0.000 C 
ATOM      3  O   UNL     1      -0.632   1.191   0.000  0.00  0.00    +0.000 OA
ATOM      4  O   UNL     1       0.796   1.191   0.000  0.00  0.00    +0.000 OA
ENDBRANCH   1   2
BRANCH   1   5
ATOM      5  C   UNL     1       0.796  -0.459   0.000  0.00  0.00    +0.000 C 
BRANCH   5   8
ATOM      6  C   UNL     1       2.225  -0.459   0.000  0.00  0.00    +0.000 C 
ATOM      7  O   UNL     1       1.511   0.778   0.000  0.00  0.00    +0.000 OA
ATOM      8  N   UNL     1       1.511  -0.046   0.000  0.00  0.00    +0.000 N 
ATOM      9  O   UNL     1       2.940  -0.046   0.000  0.00  0.00    +0.000 OA
ENDBRANCH   5   8
ENDBRANCH   1   5
BRANCH   1  10
ATOM     10  C   UNL     1      -0.632  -0.459   0.000  0.00  0.00    +0.000 C 
BRANCH  10  12
ATOM     11  C   UNL     1      -2.061  -0.459   0.000  0.00  0.00    +0.000 C 
ATOM     12  C   UNL     1      -1.347  -0.046   0.000  0.00  0.00    +0.000 C 
ATOM     13  C   UNL     1      -1.347   0.778   0.000  0.00  0.00    +0.000 C 
ENDBRANCH  10  12
ENDBRANCH   1  10
TORSDOF 5
