REMARK  Name = Structure #1
REMARK  3 active torsions:
REMARK  status: ('A' for Active; 'I' for Inactive)
REMARK    1  A    between atoms: C_1  and  C_4
REMARK    2  A    between atoms: C_2  and  C_4
REMARK    3  A    between atoms: C_3  and  C_4
REMARK                            x       y       z     vdW  Elec       q    Type
REMARK                         _______ _______ _______ _____ _____    ______ ____
ROOT
ATOM      1  C   UNL     1       1.540   0.412   0.000  0.00  0.00    +0.000 C 
ATOM      2  N   UNL     1       1.127   1.127   0.000  0.00  0.00    +0.000 NA
ENDROOT
BRANCH   1   3
ATOM      3  C   UNL     1       2.254   0.825   0.000  0.00  0.00    +0.000 C 
ATOM      4  O   UNL     1       2.254   1.650   0.000  0.00  0.00    +0.000 OA
ENDBRANCH   1   3
BRANCH   1   5
ATOM      5  C   UNL     1       1.952  -0.302   0.000  0.00  0.00    +0.000 C 
ATOM      6  O   UNL     1       2.777  -0.302   0.000  0.00  0.00    +0.000 OA
ENDBRANCH   1   5
BRANCH   1   7
ATOM      7  C   UNL     1       0.825   0.000   0.000  0.00  0.00    +0.000 C 
ATOM      8  O   UNL     1       0.111   0.412   0.000  0.00  0.00    +0.000 OA
ENDBRANCH   1   7
TORSDOF 3
