REMARK  Name = Structure #1
REMARK  2 active torsions:
REMARK  status: ('A' for Active; 'I' for Inactive)
REMARK    1  A    between atoms: C_10  and  C_12
REMARK    2  A    between atoms: C_10  and  C_14
REMARK                            x       y       z     vdW  Elec       q    Type
REMARK                         _______ _______ _______ _____ _____    ______ ____
ROOT
ATOM      1  C   UNL     1      -0.715   1.238   0.000  0.00  0.00    +0.000 A 
ATOM      2  C   UNL     1      -0.715   2.062   0.000  0.00  0.00    +0.000 A 
ATOM      3  C   UNL     1       2.143   1.238   0.000  0.00  0.00    +0.000 A 
ATOM      4  C   UNL     1       0.000   0.825   0.000  0.00  0.00    +0.000 A 
ATOM      5  C   UNL     1       1.429   0.825   0.000  0.00  0.00    +0.000 A 
ATOM      6  C   UNL     1       2.143   2.062   0.000  0.00  0.00    +0.000 A 
ATOM      7  C   UNL     1       0.000   2.475   0.000  0.00  0.00    +0.000 A 
ATOM      8  C   UNL     1       0.715   1.238   0.000  0.00  0.00    +0.000 A 
ATOM      9  C   UNL     1       1.429   2.475   0.000  0.00  0.00    +0.000 A 
ATOM     10  C   UNL     1       0.715   2.062   0.000  0.00  0.00    +0.000 A 
ENDROOT
BRANCH   9  11
ATOM     11  C   UNL     1       1.429   3.300   0.000  0.00  0.00    +0.000 C 
BRANCH  11  14
ATOM     12  C   UNL     1       3.037   4.705   0.000  0.00  0.00    +0.000 C 
ATOM     13  C   UNL     1       3.449   3.990   0.000  0.00  0.00    +0.000 C 
ATOM     14  C   UNL     1       2.143   3.712   0.000  0.00  0.00    +0.000 C 
ATOM     15  N   UNL     1       2.230   4.533   0.000  0.00  0.00    +0.000 NA
ATOM     16  N   UNL     1       2.897   3.377   0.000  0.00  0.00    +0.000 NA
ENDBRANCH  11  14
ENDBRANCH   9  11
TORSDOF 2
