REMARK  Name = Structure #1
REMARK  9 active torsions:
REMARK  status: ('A' for Active; 'I' for Inactive)
REMARK    1  A    between atoms: C_4  and  C_5
REMARK    2  A    between atoms: C_4  and  C_12
REMARK    3  A    between atoms: C_5  and  O_25
REMARK    4  A    between atoms: C_7  and  C_11
REMARK    5  A    between atoms: C_7  and  N_18
REMARK    6  A    between atoms: C_9  and  C_14
REMARK    7  A    between atoms: O_25  and  P_28
REMARK    8  A    between atoms: O_26  and  P_27
REMARK    9  A    between atoms: O_26  and  P_28
REMARK                            x       y       z     vdW  Elec       q    Type
REMARK                         _______ _______ _______ _____ _____    ______ ____
ROOT
ATOM      1  C   UNL     1       1.741  -1.621   0.000  0.00  0.00    +0.000 C 
ATOM      2  C   UNL     1       0.956  -1.366   0.000  0.00  0.00    +0.000 A 
ATOM      3  C   UNL     1       0.289  -1.851   0.000  0.00  0.00    +0.000 A 
ATOM      4  C   UNL     1      -0.123  -0.581   0.000  0.00  0.00    +0.000 A 
ATOM      5  N   UNL     1       0.702  -0.581   0.000  0.00  0.00    +0.000 N 
ATOM      6  S   UNL     1      -0.379  -1.366   0.000  0.00  0.00    +0.000 S 
ENDROOT
BRANCH   4   8
ATOM      7  C   UNL     1      -1.429   0.000   0.000  0.00  0.00    +0.000 C 
ATOM      8  C   UNL     1      -0.609   0.086   0.000  0.00  0.00    +0.000 C 
ATOM      9  O   UNL     1      -0.273   0.840   0.000  0.00  0.00    +0.000 OA
ENDBRANCH   4   8
BRANCH   5  10
ATOM     10  C   UNL     1       1.186   0.086   0.000  0.00  0.00    +0.000 C 
BRANCH  10  14
ATOM     11  C   UNL     1       4.468  -0.259   0.000  0.00  0.00    +0.000 C 
ATOM     12  C   UNL     1       2.342  -0.754   0.000  0.00  0.00    +0.000 A 
ATOM     13  C   UNL     1       3.648  -0.172   0.000  0.00  0.00    +0.000 A 
ATOM     14  C   UNL     1       2.007   0.000   0.000  0.00  0.00    +0.000 A 
ATOM     15  C   UNL     1       2.492   0.667   0.000  0.00  0.00    +0.000 A 
ATOM     16  N   UNL     1       2.156   1.421   0.000  0.00  0.00    +0.000 NA
ATOM     17  N   UNL     1       3.163  -0.840   0.000  0.00  0.00    +0.000 NA
ATOM     18  N   UNL     1       3.312   0.581   0.000  0.00  0.00    +0.000 NA
ENDBRANCH  10  14
ENDBRANCH   5  10
BRANCH   3  19
ATOM     19  C   UNL     1       0.289  -2.676   0.000  0.00  0.00    +0.000 C 
BRANCH  19  20
ATOM     20  C   UNL     1       1.003  -3.088   0.000  0.00  0.00    +0.000 C 
BRANCH  20  21
ATOM     21  O   UNL     1       1.718  -2.676   0.000  0.00  0.00    +0.000 OA
BRANCH  21  24
ATOM     22  O   UNL     1       2.020  -3.803   0.000  0.00  0.00    +0.000 OA
ATOM     23  O   UNL     1       2.845  -2.374   0.000  0.00  0.00    +0.000 OA
ATOM     24  P   UNL     1       2.432  -3.088   0.000  0.00  0.00    +0.000 P 
BRANCH  24  25
ATOM     25  O   UNL     1       3.147  -3.501   0.000  0.00  0.00    +0.000 OA
BRANCH  25  29
ATOM     26  O   UNL     1       4.576  -2.676   0.000  0.00  0.00    +0.000 OA
ATOM     27  O   UNL     1       4.274  -3.803   0.000  0.00  0.00    +0.000 OA
ATOM     28  O   UNL     1       3.449  -2.374   0.000  0.00  0.00    +0.000 OA
ATOM     29  P   UNL     1       3.861  -3.088   0.000  0.00  0.00    +0.000 P 
ENDBRANCH  25  29
ENDBRANCH  24  25
ENDBRANCH  21  24
ENDBRANCH  20  21
ENDBRANCH  19  20
ENDBRANCH   3  19
TORSDOF 9
