REMARK  Name = Structure #1
REMARK  3 active torsions:
REMARK  status: ('A' for Active; 'I' for Inactive)
REMARK    1  A    between atoms: C_3  and  C_4
REMARK    2  A    between atoms: C_4  and  S_17
REMARK    3  A    between atoms: N_12  and  S_17
REMARK                            x       y       z     vdW  Elec       q    Type
REMARK                         _______ _______ _______ _____ _____    ______ ____
ROOT
ATOM      1  C   UNL     1      -2.095   0.412   0.000  0.00  0.00    +0.000 C 
ATOM      2  C   UNL     1      -0.785   1.080   0.000  0.00  0.00    +0.000 A 
ATOM      3  C   UNL     1       0.715  -0.412   0.000  0.00  0.00    +0.000 A 
ATOM      4  C   UNL     1      -1.270   0.412   0.000  0.00  0.00    +0.000 A 
ATOM      5  C   UNL     1       0.000   0.825   0.000  0.00  0.00    +0.000 A 
ATOM      6  C   UNL     1       0.000   0.000   0.000  0.00  0.00    +0.000 A 
ATOM      7  B   UNL     1       0.715   1.238   0.000  0.00  0.00    +0.000 B 
ATOM      8  N   UNL     1       1.429   0.000   0.000  0.00  0.00    +0.000 NA
ATOM      9  N   UNL     1       1.429   0.825   0.000  0.00  0.00    +0.000 N 
ATOM     10  O   UNL     1       0.715   2.062   0.000  0.00  0.00    +0.000 OA
ATOM     11  S   UNL     1      -0.785  -0.255   0.000  0.00  0.00    +0.000 S 
ENDROOT
BRANCH   9  14
ATOM     12  O   UNL     1       1.731   1.952   0.000  0.00  0.00    +0.000 OA
ATOM     13  O   UNL     1       2.556   0.523   0.000  0.00  0.00    +0.000 OA
ATOM     14  S   UNL     1       2.143   1.238   0.000  0.00  0.00    +0.000 S 
BRANCH  14  15
ATOM     15  C   UNL     1       2.858   1.650   0.000  0.00  0.00    +0.000 C 
BRANCH  15  17
ATOM     16  C   UNL     1       4.287   1.650   0.000  0.00  0.00    +0.000 C 
ATOM     17  C   UNL     1       3.572   1.238   0.000  0.00  0.00    +0.000 C 
ENDBRANCH  15  17
ENDBRANCH  14  15
ENDBRANCH   9  14
TORSDOF 3
