REMARK  Name = STS
REMARK  4 active torsions:
REMARK  status: ('A' for Active; 'I' for Inactive)
REMARK    1  A    between atoms: C_2  and  C_3
REMARK    2  A    between atoms: C_3  and  C_4
REMARK    3  A    between atoms: C_3  and  C_13
REMARK    4  A    between atoms: C_13  and  C_14
REMARK                            x       y       z     vdW  Elec       q    Type
REMARK                         _______ _______ _______ _____ _____    ______ ____
ROOT
ATOM      1  C   UNL     1      -1.047  -0.770   0.000  0.00  0.00    +0.000 C 
ENDROOT
BRANCH   1   2
ATOM      2  C   UNL     1      -0.222  -0.770   0.000  0.00  0.00    +0.000 A 
ATOM      3  N   UNL     1       0.263  -1.438   0.000  0.00  0.00    +0.000 NA
ATOM      4  C   UNL     1       1.048  -1.183   0.000  0.00  0.00    +0.000 A 
ATOM      5  C   UNL     1       1.048  -0.358   0.000  0.00  0.00    +0.000 A 
ATOM      6  N   UNL     1       0.263  -0.103   0.000  0.00  0.00    +0.000 NA
ATOM      7  C   UNL     1       1.762   0.055   0.000  0.00  0.00    +0.000 A 
ATOM      8  C   UNL     1       2.477  -0.358   0.000  0.00  0.00    +0.000 A 
ATOM      9  N   UNL     1       2.477  -1.183   0.000  0.00  0.00    +0.000 NA
ATOM     10  C   UNL     1       1.762  -1.595   0.000  0.00  0.00    +0.000 A 
ENDBRANCH   1   2
BRANCH   1  12
ATOM     11  S   UNL     1      -2.284  -1.484   0.000  0.00  0.00    +0.000 S 
ATOM     12  C   UNL     1      -1.459  -1.484   0.000  0.00  0.00    +0.000 C 
ENDBRANCH   1  12
BRANCH   1  13
ATOM     13  C   UNL     1      -1.459  -0.056   0.000  0.00  0.00    +0.000 C 
BRANCH  13  14
ATOM     14  C   UNL     1      -1.047   0.659   0.000  0.00  0.00    +0.000 A 
ATOM     15  C   UNL     1      -1.459   1.373   0.000  0.00  0.00    +0.000 A 
ATOM     16  C   UNL     1      -1.047   2.088   0.000  0.00  0.00    +0.000 A 
ATOM     17  C   UNL     1      -0.222   2.088   0.000  0.00  0.00    +0.000 A 
ATOM     18  C   UNL     1       0.191   1.373   0.000  0.00  0.00    +0.000 A 
ATOM     19  C   UNL     1      -0.222   0.659   0.000  0.00  0.00    +0.000 A 
ENDBRANCH  13  14
ENDBRANCH   1  13
TORSDOF 4
