REMARK  Name = STX
REMARK  4 active torsions:
REMARK  status: ('A' for Active; 'I' for Inactive)
REMARK    1  A    between atoms: N_1  and  C_2
REMARK    2  A    between atoms: C_2  and  C_3
REMARK    3  A    between atoms: C_3  and  C_6
REMARK    4  A    between atoms: C_9  and  C_11
REMARK                            x       y       z     vdW  Elec       q    Type
REMARK                         _______ _______ _______ _____ _____    ______ ____
ROOT
ATOM      1  C   UNL     1      -0.012  -0.463   0.000  0.00  0.00    +0.000 A 
ATOM      2  N   UNL     1      -0.837  -0.463   0.000  0.00  0.00    +0.000 NA
ATOM      3  N   UNL     1      -1.092   0.322   0.000  0.00  0.00    +0.000 NA
ATOM      4  C   UNL     1      -0.424   0.807   0.000  0.00  0.00    +0.000 A 
ATOM      5  O   UNL     1       0.243   0.322   0.000  0.00  0.00    +0.000 OA
ENDROOT
BRANCH   4   6
ATOM      6  C   UNL     1      -0.424   1.632   0.000  0.00  0.00    +0.000 C 
ATOM      7  C   UNL     1      -0.424   2.457   0.000  0.00  0.00    +0.000 C 
ATOM      8  C   UNL     1       0.401   1.632   0.000  0.00  0.00    +0.000 C 
ATOM      9  C   UNL     1      -1.249   1.632   0.000  0.00  0.00    +0.000 C 
ENDBRANCH   4   6
BRANCH   1  10
ATOM     10  C   UNL     1       0.473  -1.130   0.000  0.00  0.00    +0.000 C 
ATOM     11  O   UNL     1       1.294  -1.044   0.000  0.00  0.00    +0.000 OA
BRANCH  10  12
ATOM     12  C   UNL     1       0.138  -1.884   0.000  0.00  0.00    +0.000 C 
BRANCH  12  13
ATOM     13  N   UNL     1       0.623  -2.551   0.000  0.00  0.00    +0.000 NA
ATOM     14  C   UNL     1       0.287  -3.305   0.000  0.00  0.00    +0.000 C 
ENDBRANCH  12  13
ENDBRANCH  10  12
ENDBRANCH   1  10
TORSDOF 4
