REMARK  Name = SU1
REMARK  4 active torsions:
REMARK  status: ('A' for Active; 'I' for Inactive)
REMARK    1  A    between atoms: C_11  and  C_13
REMARK    2  A    between atoms: C_14  and  C_18
REMARK    3  A    between atoms: C_18  and  C_19
REMARK    4  A    between atoms: C_19  and  C_20
REMARK                            x       y       z     vdW  Elec       q    Type
REMARK                         _______ _______ _______ _____ _____    ______ ____
ROOT
ATOM      1  N   UNL     1       0.792  -1.089   0.000  0.00  0.00    +0.000 NA
ATOM      2  C   UNL     1       0.307  -0.422   0.000  0.00  0.00    +0.000 C 
ATOM      3  O   UNL     1      -0.518  -0.422   0.000  0.00  0.00    +0.000 OA
ATOM      4  C   UNL     1       0.792   0.245   0.000  0.00  0.00    +0.000 C 
ATOM      5  C   UNL     1       2.291   0.403   0.000  0.00  0.00    +0.000 A 
ATOM      6  C   UNL     1       3.006  -0.009   0.000  0.00  0.00    +0.000 A 
ATOM      7  C   UNL     1       3.006  -0.835   0.000  0.00  0.00    +0.000 A 
ATOM      8  C   UNL     1       2.291  -1.247   0.000  0.00  0.00    +0.000 A 
ATOM      9  C   UNL     1       1.577  -0.835   0.000  0.00  0.00    +0.000 A 
ATOM     10  C   UNL     1       1.577  -0.009   0.000  0.00  0.00    +0.000 A 
ATOM     11  C   UNL     1       0.537   1.030   0.000  0.00  0.00    +0.000 C 
ENDROOT
BRANCH  11  13
ATOM     12  N   UNL     1      -0.605   1.955   0.000  0.00  0.00    +0.000 NA
ATOM     13  C   UNL     1      -0.270   1.202   0.000  0.00  0.00    +0.000 A 
ATOM     14  C   UNL     1      -0.883   0.650   0.000  0.00  0.00    +0.000 A 
ATOM     15  C   UNL     1      -1.597   1.062   0.000  0.00  0.00    +0.000 A 
ATOM     16  C   UNL     1      -1.426   1.869   0.000  0.00  0.00    +0.000 A 
ATOM     17  C   UNL     1      -2.351   0.727   0.000  0.00  0.00    +0.000 C 
BRANCH  14  18
ATOM     18  C   UNL     1      -0.797  -0.171   0.000  0.00  0.00    +0.000 C 
BRANCH  18  19
ATOM     19  C   UNL     1      -1.464  -0.656   0.000  0.00  0.00    +0.000 C 
BRANCH  19  20
ATOM     20  C   UNL     1      -1.378  -1.476   0.000  0.00  0.00    +0.000 C 
ATOM     21  O   UNL     1      -2.045  -1.961   0.000  0.00  0.00    +0.000 OA
ATOM     22  O   UNL     1      -0.624  -1.812   0.000  0.00  0.00    +0.000 OA
ENDBRANCH  19  20
ENDBRANCH  18  19
ENDBRANCH  14  18
ENDBRANCH  11  13
TORSDOF 4
