REMARK  Name = SU9
REMARK  2 active torsions:
REMARK  status: ('A' for Active; 'I' for Inactive)
REMARK    1  A    between atoms: C_5  and  C_6
REMARK    2  A    between atoms: C_14  and  O_15
REMARK                            x       y       z     vdW  Elec       q    Type
REMARK                         _______ _______ _______ _____ _____    ______ ____
ROOT
ATOM      1  C   UNL     1      -0.798  -0.831   0.000  0.00  0.00    +0.000 C 
ATOM      2  C   UNL     1      -0.543  -0.046   0.000  0.00  0.00    +0.000 C 
ATOM      3  C   UNL     1      -1.028   0.621   0.000  0.00  0.00    +0.000 C 
ATOM      4  O   UNL     1      -1.853   0.621   0.000  0.00  0.00    +0.000 OA
ATOM      5  N   UNL     1      -0.543   1.289   0.000  0.00  0.00    +0.000 NA
ATOM      6  C   UNL     1       0.242   1.034   0.000  0.00  0.00    +0.000 A 
ATOM      7  C   UNL     1       0.956   1.446   0.000  0.00  0.00    +0.000 A 
ATOM      8  C   UNL     1       1.671   1.034   0.000  0.00  0.00    +0.000 A 
ATOM      9  C   UNL     1       1.671   0.209   0.000  0.00  0.00    +0.000 A 
ATOM     10  C   UNL     1       0.956  -0.204   0.000  0.00  0.00    +0.000 A 
ATOM     11  C   UNL     1       0.242   0.209   0.000  0.00  0.00    +0.000 A 
ENDROOT
BRANCH   1  16
ATOM     12  N   UNL     1      -1.940  -1.756   0.000  0.00  0.00    +0.000 NA
ATOM     13  C   UNL     1      -2.761  -1.670   0.000  0.00  0.00    +0.000 A 
ATOM     14  N   UNL     1      -2.932  -0.863   0.000  0.00  0.00    +0.000 NA
ATOM     15  C   UNL     1      -2.218  -0.450   0.000  0.00  0.00    +0.000 A 
ATOM     16  C   UNL     1      -1.605  -1.002   0.000  0.00  0.00    +0.000 A 
ENDBRANCH   1  16
BRANCH   9  17
ATOM     17  O   UNL     1       2.385  -0.204   0.000  0.00  0.00    +0.000 OA
ATOM     18  C   UNL     1       3.100   0.209   0.000  0.00  0.00    +0.000 C 
ENDBRANCH   9  17
TORSDOF 2
