REMARK  Name = SUA
REMARK  7 active torsions:
REMARK  status: ('A' for Active; 'I' for Inactive)
REMARK    1  A    between atoms: S_1  and  C_7
REMARK    2  A    between atoms: C_10  and  N_11
REMARK    3  A    between atoms: N_11  and  C_12
REMARK    4  A    between atoms: C_12  and  O_14
REMARK    5  A    between atoms: O_14  and  C_15
REMARK    6  A    between atoms: C_15  and  C_16
REMARK    7  A    between atoms: C_16  and  C_17
REMARK                            x       y       z     vdW  Elec       q    Type
REMARK                         _______ _______ _______ _____ _____    ______ ____
ROOT
ATOM      1  N   UNL     1      -0.401   0.523   0.000  0.00  0.00    +0.000 NA
ENDROOT
BRANCH   1   7
ATOM      2  C   UNL     1      -1.115  -0.714   0.000  0.00  0.00    +0.000 A 
ATOM      3  C   UNL     1      -1.830  -1.127   0.000  0.00  0.00    +0.000 A 
ATOM      4  C   UNL     1      -2.544  -0.714   0.000  0.00  0.00    +0.000 A 
ATOM      5  C   UNL     1      -2.544   0.111   0.000  0.00  0.00    +0.000 A 
ATOM      6  C   UNL     1      -1.830   0.523   0.000  0.00  0.00    +0.000 A 
ATOM      7  C   UNL     1      -1.115   0.111   0.000  0.00  0.00    +0.000 A 
BRANCH   4   8
ATOM      8  S   UNL     1      -3.259  -1.127   0.000  0.00  0.00    +0.000 S 
ATOM      9  O   UNL     1      -3.973  -1.539   0.000  0.00  0.00    +0.000 OA
ATOM     10  O   UNL     1      -2.846  -1.841   0.000  0.00  0.00    +0.000 OA
ATOM     11  N   UNL     1      -3.671  -0.412   0.000  0.00  0.00    +0.000 NA
ENDBRANCH   4   8
ENDBRANCH   1   7
BRANCH   1  12
ATOM     12  C   UNL     1       0.314   0.111   0.000  0.00  0.00    +0.000 C 
ATOM     13  S   UNL     1       0.314  -0.714   0.000  0.00  0.00    +0.000 S 
BRANCH  12  14
ATOM     14  O   UNL     1       1.028   0.523   0.000  0.00  0.00    +0.000 OA
BRANCH  14  15
ATOM     15  C   UNL     1       1.743   0.111   0.000  0.00  0.00    +0.000 C 
BRANCH  15  16
ATOM     16  C   UNL     1       2.457   0.523   0.000  0.00  0.00    +0.000 C 
BRANCH  16  17
ATOM     17  C   UNL     1       3.172   0.111   0.000  0.00  0.00    +0.000 A 
ATOM     18  C   UNL     1       3.925   0.447   0.000  0.00  0.00    +0.000 A 
ATOM     19  C   UNL     1       4.477  -0.167   0.000  0.00  0.00    +0.000 A 
ATOM     20  S   UNL     1       4.065  -0.881   0.000  0.00  0.00    +0.000 S 
ATOM     21  C   UNL     1       3.258  -0.710   0.000  0.00  0.00    +0.000 A 
ENDBRANCH  16  17
ENDBRANCH  15  16
ENDBRANCH  14  15
ENDBRANCH  12  14
ENDBRANCH   1  12
TORSDOF 7
