REMARK  Name = SX2
REMARK  4 active torsions:
REMARK  status: ('A' for Active; 'I' for Inactive)
REMARK    1  A    between atoms: C_7  and  N_8
REMARK    2  A    between atoms: C_9  and  C_11
REMARK    3  A    between atoms: C_11  and  C_12
REMARK    4  A    between atoms: C_12  and  C_13
REMARK                            x       y       z     vdW  Elec       q    Type
REMARK                         _______ _______ _______ _____ _____    ______ ____
ROOT
ATOM      1  N   UNL     1       0.455  -0.670   0.000  0.00  0.00    +0.000 NA
ATOM      2  C   UNL     1       1.169  -0.258   0.000  0.00  0.00    +0.000 C 
ATOM      3  O   UNL     1       1.169   0.568   0.000  0.00  0.00    +0.000 OA
ENDROOT
BRANCH   1  10
ATOM      4 BR   UNL     1      -2.403   0.980   0.000  0.00  0.00    +0.000 Br
ATOM      5  C   UNL     1      -1.688   0.568   0.000  0.00  0.00    +0.000 A 
ATOM      6  C   UNL     1      -1.688  -0.258   0.000  0.00  0.00    +0.000 A 
ATOM      7  N   UNL     1      -0.974  -0.670   0.000  0.00  0.00    +0.000 NA
ATOM      8  C   UNL     1      -0.974   0.980   0.000  0.00  0.00    +0.000 A 
ATOM      9  C   UNL     1      -0.260   0.568   0.000  0.00  0.00    +0.000 A 
ATOM     10  C   UNL     1      -0.260  -0.258   0.000  0.00  0.00    +0.000 A 
ENDBRANCH   1  10
BRANCH   2  11
ATOM     11  C   UNL     1       1.884  -0.670   0.000  0.00  0.00    +0.000 C 
BRANCH  11  12
ATOM     12  C   UNL     1       2.598  -0.258   0.000  0.00  0.00    +0.000 C 
BRANCH  12  13
ATOM     13  C   UNL     1       3.313  -0.670   0.000  0.00  0.00    +0.000 C 
ATOM     14  O   UNL     1       4.027  -0.258   0.000  0.00  0.00    +0.000 OA
ATOM     15  O   UNL     1       3.313  -1.495   0.000  0.00  0.00    +0.000 OA
ENDBRANCH  12  13
ENDBRANCH  11  12
ENDBRANCH   2  11
TORSDOF 4
