REMARK  Name = SX3
REMARK  1 active torsions:
REMARK  status: ('A' for Active; 'I' for Inactive)
REMARK    1  A    between atoms: C_8  and  C_9
REMARK                            x       y       z     vdW  Elec       q    Type
REMARK                         _______ _______ _______ _____ _____    ______ ____
ROOT
ATOM      1  C   UNL     1      -1.340   0.986   0.000  0.00  0.00    +0.000 C 
ATOM      2  O   UNL     1      -2.054   1.398   0.000  0.00  0.00    +0.000 OA
ATOM      3  N   UNL     1      -1.340   0.161   0.000  0.00  0.00    +0.000 N 
ATOM      4  C   UNL     1      -2.054  -0.252   0.000  0.00  0.00    +0.000 C 
ATOM      5  C   UNL     1      -2.054  -1.077   0.000  0.00  0.00    +0.000 C 
ATOM      6  C   UNL     1      -2.769  -1.489   0.000  0.00  0.00    +0.000 C 
ATOM      7  C   UNL     1      -1.340  -1.489   0.000  0.00  0.00    +0.000 C 
ATOM      8  C   UNL     1      -0.625  -0.252   0.000  0.00  0.00    +0.000 C 
ATOM      9  C   UNL     1      -0.625  -1.077   0.000  0.00  0.00    +0.000 C 
ATOM     10  C   UNL     1       0.089  -1.489   0.000  0.00  0.00    +0.000 C 
ENDROOT
BRANCH   1  18
ATOM     11 BR   UNL     1       0.089   3.461   0.000  0.00  0.00    +0.000 Br
ATOM     12  C   UNL     1       0.089   2.636   0.000  0.00  0.00    +0.000 A 
ATOM     13  C   UNL     1      -0.625   2.223   0.000  0.00  0.00    +0.000 A 
ATOM     14  C   UNL     1       0.803   2.223   0.000  0.00  0.00    +0.000 A 
ATOM     15  C   UNL     1       0.803   1.398   0.000  0.00  0.00    +0.000 A 
ATOM     16  C   UNL     1       0.089   0.986   0.000  0.00  0.00    +0.000 A 
ATOM     17  N   UNL     1       0.089   0.161   0.000  0.00  0.00    +0.000 NA
ATOM     18  C   UNL     1      -0.625   1.398   0.000  0.00  0.00    +0.000 A 
ENDBRANCH   1  18
TORSDOF 1
