REMARK  Name = SX4
REMARK  3 active torsions:
REMARK  status: ('A' for Active; 'I' for Inactive)
REMARK    1  A    between atoms: C_7  and  C_8
REMARK    2  A    between atoms: C_8  and  C_9
REMARK    3  A    between atoms: C_14  and  C_16
REMARK                            x       y       z     vdW  Elec       q    Type
REMARK                         _______ _______ _______ _____ _____    ______ ____
ROOT
ATOM      1  C   UNL     1       0.448   0.417   0.000  0.00  0.00    +0.000 C 
ATOM      2  C   UNL     1       1.115   0.902   0.000  0.00  0.00    +0.000 C 
ATOM      3  C   UNL     1       1.782   0.417   0.000  0.00  0.00    +0.000 C 
ATOM      4  C   UNL     1       1.527  -0.368   0.000  0.00  0.00    +0.000 C 
ATOM      5  N   UNL     1       0.702  -0.368   0.000  0.00  0.00    +0.000 N 
ATOM      6  C   UNL     1       0.217  -1.035   0.000  0.00  0.00    +0.000 C 
ATOM      7  O   UNL     1      -0.603  -0.949   0.000  0.00  0.00    +0.000 OA
ENDROOT
BRANCH   6   8
ATOM      8  C   UNL     1       0.553  -1.789   0.000  0.00  0.00    +0.000 A 
ATOM      9  C   UNL     1       1.373  -1.875   0.000  0.00  0.00    +0.000 A 
ATOM     10  N   UNL     1       1.859  -1.208   0.000  0.00  0.00    +0.000 NA
ATOM     11  C   UNL     1       0.068  -2.456   0.000  0.00  0.00    +0.000 A 
ATOM     12  C   UNL     1       0.404  -3.210   0.000  0.00  0.00    +0.000 A 
ATOM     13 BR   UNL     1      -0.081  -3.877   0.000  0.00  0.00    +0.000 Br
ATOM     14  C   UNL     1       1.224  -3.296   0.000  0.00  0.00    +0.000 A 
ATOM     15  C   UNL     1       1.709  -2.629   0.000  0.00  0.00    +0.000 A 
ENDBRANCH   6   8
BRANCH   1  16
ATOM     16  C   UNL     1      -0.337   0.672   0.000  0.00  0.00    +0.000 C 
BRANCH  16  23
ATOM     17 CL   UNL     1      -1.906   1.182   0.000  0.00  0.00    +0.000 Cl
ATOM     18  C   UNL     1      -1.293   1.734   0.000  0.00  0.00    +0.000 A 
ATOM     19  C   UNL     1      -1.465   2.541   0.000  0.00  0.00    +0.000 A 
ATOM     20  C   UNL     1      -0.852   3.093   0.000  0.00  0.00    +0.000 A 
ATOM     21  C   UNL     1      -0.067   2.838   0.000  0.00  0.00    +0.000 A 
ATOM     22  C   UNL     1       0.104   2.031   0.000  0.00  0.00    +0.000 A 
ATOM     23  C   UNL     1      -0.509   1.479   0.000  0.00  0.00    +0.000 A 
ENDBRANCH  16  23
ENDBRANCH   1  16
TORSDOF 3
