REMARK  Name = SX5
REMARK  5 active torsions:
REMARK  status: ('A' for Active; 'I' for Inactive)
REMARK    1  A    between atoms: C_2  and  C_4
REMARK    2  A    between atoms: C_4  and  C_5
REMARK    3  A    between atoms: C_5  and  C_6
REMARK    4  A    between atoms: N_8  and  C_9
REMARK    5  A    between atoms: C_15  and  C_16
REMARK                            x       y       z     vdW  Elec       q    Type
REMARK                         _______ _______ _______ _____ _____    ______ ____
ROOT
ATOM      1  C   UNL     1      -0.973  -1.633   0.000  0.00  0.00    +0.000 A 
ATOM      2  C   UNL     1      -0.973  -2.458   0.000  0.00  0.00    +0.000 A 
ATOM      3  C   UNL     1      -0.258  -2.871   0.000  0.00  0.00    +0.000 A 
ATOM      4  C   UNL     1       0.457  -2.458   0.000  0.00  0.00    +0.000 A 
ATOM      5 BR   UNL     1       1.171  -2.871   0.000  0.00  0.00    +0.000 Br
ATOM      6  C   UNL     1       0.457  -1.633   0.000  0.00  0.00    +0.000 A 
ATOM      7  C   UNL     1      -0.258  -1.221   0.000  0.00  0.00    +0.000 A 
ENDROOT
BRANCH   7   8
ATOM      8  C   UNL     1      -0.258  -0.396   0.000  0.00  0.00    +0.000 C 
ATOM      9  O   UNL     1      -0.973   0.017   0.000  0.00  0.00    +0.000 OA
ATOM     10  N   UNL     1       0.457   0.017   0.000  0.00  0.00    +0.000 N 
ATOM     11  C   UNL     1       1.171  -0.396   0.000  0.00  0.00    +0.000 C 
ATOM     12  C   UNL     1       1.885   0.017   0.000  0.00  0.00    +0.000 C 
ATOM     13  C   UNL     1       2.600  -0.396   0.000  0.00  0.00    +0.000 C 
ATOM     14  C   UNL     1       1.885   0.842   0.000  0.00  0.00    +0.000 C 
ATOM     15  C   UNL     1       0.457   0.842   0.000  0.00  0.00    +0.000 C 
ATOM     16  C   UNL     1       1.171   1.254   0.000  0.00  0.00    +0.000 C 
ATOM     17  C   UNL     1       1.171   2.079   0.000  0.00  0.00    +0.000 C 
ENDBRANCH   7   8
BRANCH   1  20
ATOM     18  C   UNL     1      -2.401  -1.633   0.000  0.00  0.00    +0.000 C 
ATOM     19  O   UNL     1      -2.401  -2.458   0.000  0.00  0.00    +0.000 OA
ATOM     20  N   UNL     1      -1.687  -1.221   0.000  0.00  0.00    +0.000 NA
BRANCH  18  21
ATOM     21  C   UNL     1      -3.116  -1.221   0.000  0.00  0.00    +0.000 C 
BRANCH  21  22
ATOM     22  C   UNL     1      -3.830  -1.633   0.000  0.00  0.00    +0.000 C 
BRANCH  22  24
ATOM     23  O   UNL     1      -5.259  -1.633   0.000  0.00  0.00    +0.000 OA
ATOM     24  C   UNL     1      -4.545  -1.221   0.000  0.00  0.00    +0.000 C 
ATOM     25  O   UNL     1      -4.545  -0.396   0.000  0.00  0.00    +0.000 OA
ENDBRANCH  22  24
ENDBRANCH  21  22
ENDBRANCH  18  21
ENDBRANCH   1  20
TORSDOF 5
