REMARK  Name = SX6
REMARK  5 active torsions:
REMARK  status: ('A' for Active; 'I' for Inactive)
REMARK    1  A    between atoms: C_2  and  C_9
REMARK    2  A    between atoms: C_9  and  C_10
REMARK    3  A    between atoms: C_10  and  C_11
REMARK    4  A    between atoms: N_13  and  C_14
REMARK    5  A    between atoms: C_20  and  C_21
REMARK                            x       y       z     vdW  Elec       q    Type
REMARK                         _______ _______ _______ _____ _____    ______ ____
ROOT
ATOM      1  C   UNL     1       0.249  -1.239   0.000  0.00  0.00    +0.000 A 
ATOM      2  C   UNL     1       0.249  -2.064   0.000  0.00  0.00    +0.000 A 
ATOM      3  C   UNL     1       0.964  -2.476   0.000  0.00  0.00    +0.000 A 
ATOM      4  C   UNL     1       1.678  -2.064   0.000  0.00  0.00    +0.000 A 
ATOM      5 BR   UNL     1       2.393  -2.476   0.000  0.00  0.00    +0.000 Br
ATOM      6  C   UNL     1       1.678  -1.239   0.000  0.00  0.00    +0.000 A 
ATOM      7  C   UNL     1       0.964  -0.826   0.000  0.00  0.00    +0.000 A 
ENDROOT
BRANCH   7   8
ATOM      8  C   UNL     1       0.964  -0.001   0.000  0.00  0.00    +0.000 C 
ATOM      9  O   UNL     1       0.249   0.411   0.000  0.00  0.00    +0.000 OA
ATOM     10  N   UNL     1       1.678   0.411   0.000  0.00  0.00    +0.000 N 
ATOM     11  C   UNL     1       2.393  -0.001   0.000  0.00  0.00    +0.000 C 
ATOM     12  C   UNL     1       3.107   0.411   0.000  0.00  0.00    +0.000 C 
ATOM     13  C   UNL     1       3.822  -0.001   0.000  0.00  0.00    +0.000 C 
ATOM     14  C   UNL     1       3.107   1.236   0.000  0.00  0.00    +0.000 C 
ATOM     15  C   UNL     1       1.678   1.236   0.000  0.00  0.00    +0.000 C 
ATOM     16  C   UNL     1       2.393   1.649   0.000  0.00  0.00    +0.000 C 
ATOM     17  C   UNL     1       2.393   2.474   0.000  0.00  0.00    +0.000 C 
ENDBRANCH   7   8
BRANCH   1  20
ATOM     18  C   UNL     1      -1.180  -1.239   0.000  0.00  0.00    +0.000 C 
ATOM     19  O   UNL     1      -1.180  -2.064   0.000  0.00  0.00    +0.000 OA
ATOM     20  N   UNL     1      -0.465  -0.826   0.000  0.00  0.00    +0.000 NA
BRANCH  18  21
ATOM     21  C   UNL     1      -1.894  -0.826   0.000  0.00  0.00    +0.000 C 
BRANCH  21  22
ATOM     22  C   UNL     1      -2.609  -1.239   0.000  0.00  0.00    +0.000 C 
BRANCH  22  24
ATOM     23  O   UNL     1      -3.323  -0.001   0.000  0.00  0.00    +0.000 OA
ATOM     24  C   UNL     1      -3.323  -0.826   0.000  0.00  0.00    +0.000 C 
ATOM     25  N   UNL     1      -4.038  -1.239   0.000  0.00  0.00    +0.000 N 
ATOM     26  C   UNL     1      -4.752  -0.826   0.000  0.00  0.00    +0.000 C 
ATOM     27  C   UNL     1      -5.467  -1.239   0.000  0.00  0.00    +0.000 C 
ATOM     28  O   UNL     1      -5.467  -2.064   0.000  0.00  0.00    +0.000 OA
ATOM     29  C   UNL     1      -4.752  -2.476   0.000  0.00  0.00    +0.000 C 
ATOM     30  C   UNL     1      -4.038  -2.064   0.000  0.00  0.00    +0.000 C 
ENDBRANCH  22  24
ENDBRANCH  21  22
ENDBRANCH  18  21
ENDBRANCH   1  20
TORSDOF 5
