REMARK  Name = SX7
REMARK  4 active torsions:
REMARK  status: ('A' for Active; 'I' for Inactive)
REMARK    1  A    between atoms: C_3  and  C_6
REMARK    2  A    between atoms: N_5  and  C_9
REMARK    3  A    between atoms: C_10  and  C_14
REMARK    4  A    between atoms: C_20  and  C_21
REMARK                            x       y       z     vdW  Elec       q    Type
REMARK                         _______ _______ _______ _____ _____    ______ ____
ROOT
ATOM      1  C   UNL     1      -2.709  -1.695   0.000  0.00  0.00    +0.000 A 
ATOM      2  C   UNL     1      -2.224  -1.028   0.000  0.00  0.00    +0.000 A 
ATOM      3  C   UNL     1      -0.011  -1.283   0.000  0.00  0.00    +0.000 A 
ATOM      4  C   UNL     1      -0.011  -2.108   0.000  0.00  0.00    +0.000 A 
ATOM      5  N   UNL     1      -0.725  -2.520   0.000  0.00  0.00    +0.000 NA
ATOM      6  C   UNL     1      -0.725  -0.870   0.000  0.00  0.00    +0.000 A 
ATOM      7  C   UNL     1      -1.440  -1.283   0.000  0.00  0.00    +0.000 A 
ATOM      8  C   UNL     1      -1.440  -2.108   0.000  0.00  0.00    +0.000 A 
ATOM      9  N   UNL     1      -2.224  -2.363   0.000  0.00  0.00    +0.000 NA
ENDROOT
BRANCH   3  16
ATOM     10  C   UNL     1       1.418   0.367   0.000  0.00  0.00    +0.000 A 
ATOM     11  C   UNL     1       2.132  -0.045   0.000  0.00  0.00    +0.000 A 
ATOM     12  N   UNL     1       2.847   0.367   0.000  0.00  0.00    +0.000 NA
ATOM     13  C   UNL     1       2.132  -0.870   0.000  0.00  0.00    +0.000 A 
ATOM     14  C   UNL     1       1.418  -1.283   0.000  0.00  0.00    +0.000 A 
ATOM     15  C   UNL     1       0.704  -0.045   0.000  0.00  0.00    +0.000 A 
ATOM     16  C   UNL     1       0.704  -0.870   0.000  0.00  0.00    +0.000 A 
BRANCH  10  18
ATOM     17  O   UNL     1       0.704   1.605   0.000  0.00  0.00    +0.000 OA
ATOM     18  C   UNL     1       1.418   1.192   0.000  0.00  0.00    +0.000 C 
ATOM     19  N   UNL     1       2.132   1.605   0.000  0.00  0.00    +0.000 N 
ATOM     20  C   UNL     1       2.132   2.430   0.000  0.00  0.00    +0.000 C 
ATOM     21  C   UNL     1       2.847   1.192   0.000  0.00  0.00    +0.000 C 
ENDBRANCH  10  18
ENDBRANCH   3  16
BRANCH   2  23
ATOM     22  N   UNL     1      -1.994   0.424   0.000  0.00  0.00    +0.000 N 
ATOM     23  C   UNL     1      -2.479  -0.243   0.000  0.00  0.00    +0.000 A 
ATOM     24  C   UNL     1      -3.264   0.012   0.000  0.00  0.00    +0.000 A 
ATOM     25  C   UNL     1      -3.264   0.837   0.000  0.00  0.00    +0.000 A 
ATOM     26  N   UNL     1      -2.479   1.091   0.000  0.00  0.00    +0.000 NA
BRANCH  22  28
ATOM     27  C   UNL     1      -0.757   1.139   0.000  0.00  0.00    +0.000 C 
ATOM     28  C   UNL     1      -1.169   0.424   0.000  0.00  0.00    +0.000 C 
ENDBRANCH  22  28
ENDBRANCH   2  23
TORSDOF 4
