REMARK  Name = SXH
REMARK  16 active torsions:
REMARK  status: ('A' for Active; 'I' for Inactive)
REMARK    1  A    between atoms: P_2  and  O_5
REMARK    2  A    between atoms: O_5  and  C_6
REMARK    3  A    between atoms: C_6  and  C_7
REMARK    4  A    between atoms: C_7  and  C_10
REMARK    5  A    between atoms: C_10  and  C_12
REMARK    6  A    between atoms: N_14  and  C_15
REMARK    7  A    between atoms: C_15  and  C_16
REMARK    8  A    between atoms: C_16  and  C_17
REMARK    9  A    between atoms: N_19  and  C_20
REMARK   10  A    between atoms: C_20  and  C_21
REMARK   11  A    between atoms: C_21  and  S_22
REMARK   12  A    between atoms: S_22  and  C_23
REMARK   13  A    between atoms: C_23  and  C_25
REMARK   14  A    between atoms: C_25  and  C_26
REMARK   15  A    between atoms: C_26  and  C_27
REMARK   16  A    between atoms: C_27  and  C_28
REMARK                            x       y       z     vdW  Elec       q    Type
REMARK                         _______ _______ _______ _____ _____    ______ ____
ROOT
ATOM      1  C   UNL     1      -0.582   0.050   0.000  0.00  0.00    +0.000 C 
ENDROOT
BRANCH   1   4
ATOM      2  C   UNL     1      -2.008  -0.041   0.000  0.00  0.00    +0.000 C 
ATOM      3  O   UNL     1      -2.061   0.782   0.000  0.00  0.00    +0.000 OA
ATOM      4  N   UNL     1      -1.268  -0.407   0.000  0.00  0.00    +0.000 NA
BRANCH   2   5
ATOM      5  C   UNL     1      -2.695  -0.499   0.000  0.00  0.00    +0.000 C 
ATOM      6  O   UNL     1      -2.642  -1.322   0.000  0.00  0.00    +0.000 OA
BRANCH   5   7
ATOM      7  C   UNL     1      -3.434  -0.133   0.000  0.00  0.00    +0.000 C 
ATOM      8  C   UNL     1      -3.800  -0.872   0.000  0.00  0.00    +0.000 C 
ATOM      9  C   UNL     1      -3.068   0.607   0.000  0.00  0.00    +0.000 C 
BRANCH   7  10
ATOM     10  C   UNL     1      -4.173   0.233   0.000  0.00  0.00    +0.000 C 
BRANCH  10  11
ATOM     11  O   UNL     1      -4.860  -0.224   0.000  0.00  0.00    +0.000 OA
BRANCH  11  13
ATOM     12  O   UNL     1      -6.339   0.508   0.000  0.00  0.00    +0.000 OA
ATOM     13  P   UNL     1      -5.599   0.142   0.000  0.00  0.00    +0.000 P 
ATOM     14  O   UNL     1      -5.233   0.881   0.000  0.00  0.00    +0.000 OA
ATOM     15  O   UNL     1      -5.965  -0.598   0.000  0.00  0.00    +0.000 OA
ENDBRANCH  11  13
ENDBRANCH  10  11
ENDBRANCH   7  10
ENDBRANCH   5   7
ENDBRANCH   2   5
ENDBRANCH   1   4
BRANCH   1  16
ATOM     16  C   UNL     1       0.158  -0.316   0.000  0.00  0.00    +0.000 C 
BRANCH  16  17
ATOM     17  C   UNL     1       0.844   0.142   0.000  0.00  0.00    +0.000 C 
ATOM     18  O   UNL     1       0.791   0.965   0.000  0.00  0.00    +0.000 OA
ATOM     19  N   UNL     1       1.584  -0.224   0.000  0.00  0.00    +0.000 NA
BRANCH  19  20
ATOM     20  C   UNL     1       2.270   0.233   0.000  0.00  0.00    +0.000 C 
BRANCH  20  21
ATOM     21  C   UNL     1       3.010  -0.133   0.000  0.00  0.00    +0.000 C 
BRANCH  21  22
ATOM     22  S   UNL     1       3.696   0.325   0.000  0.00  0.00    +0.000 S 
BRANCH  22  23
ATOM     23  C   UNL     1       4.436  -0.041   0.000  0.00  0.00    +0.000 C 
ATOM     24  O   UNL     1       4.488  -0.865   0.000  0.00  0.00    +0.000 OA
BRANCH  23  25
ATOM     25  C   UNL     1       5.122   0.416   0.000  0.00  0.00    +0.000 C 
BRANCH  25  26
ATOM     26  C   UNL     1       5.862   0.050   0.000  0.00  0.00    +0.000 C 
BRANCH  26  27
ATOM     27  C   UNL     1       6.548   0.508   0.000  0.00  0.00    +0.000 C 
BRANCH  27  28
ATOM     28  C   UNL     1       7.288   0.142   0.000  0.00  0.00    +0.000 C 
ATOM     29  C   UNL     1       7.974   0.599   0.000  0.00  0.00    +0.000 C 
ENDBRANCH  27  28
ENDBRANCH  26  27
ENDBRANCH  25  26
ENDBRANCH  23  25
ENDBRANCH  22  23
ENDBRANCH  21  22
ENDBRANCH  20  21
ENDBRANCH  19  20
ENDBRANCH  16  17
ENDBRANCH   1  16
TORSDOF 16
