REMARK  Name = SXO
REMARK  18 active torsions:
REMARK  status: ('A' for Active; 'I' for Inactive)
REMARK    1  A    between atoms: P_2  and  O_5
REMARK    2  A    between atoms: O_5  and  C_6
REMARK    3  A    between atoms: C_6  and  C_7
REMARK    4  A    between atoms: C_7  and  C_10
REMARK    5  A    between atoms: C_10  and  C_12
REMARK    6  A    between atoms: N_14  and  C_15
REMARK    7  A    between atoms: C_15  and  C_16
REMARK    8  A    between atoms: C_16  and  C_17
REMARK    9  A    between atoms: N_19  and  C_20
REMARK   10  A    between atoms: C_20  and  C_21
REMARK   11  A    between atoms: C_21  and  S_22
REMARK   12  A    between atoms: S_22  and  C_23
REMARK   13  A    between atoms: C_23  and  C_25
REMARK   14  A    between atoms: C_25  and  C_26
REMARK   15  A    between atoms: C_26  and  C_27
REMARK   16  A    between atoms: C_27  and  C_28
REMARK   17  A    between atoms: C_28  and  C_29
REMARK   18  A    between atoms: C_29  and  C_30
REMARK                            x       y       z     vdW  Elec       q    Type
REMARK                         _______ _______ _______ _____ _____    ______ ____
ROOT
ATOM      1  C   UNL     1      -1.988  -0.416   0.000  0.00  0.00    +0.000 C 
ENDROOT
BRANCH   1   2
ATOM      2  C   UNL     1      -1.298   0.037   0.000  0.00  0.00    +0.000 C 
ATOM      3  O   UNL     1      -1.346   0.861   0.000  0.00  0.00    +0.000 OA
ATOM      4  N   UNL     1      -0.561  -0.334   0.000  0.00  0.00    +0.000 NA
BRANCH   4   5
ATOM      5  C   UNL     1       0.128   0.119   0.000  0.00  0.00    +0.000 C 
BRANCH   5   6
ATOM      6  C   UNL     1       0.865  -0.251   0.000  0.00  0.00    +0.000 C 
BRANCH   6   7
ATOM      7  S   UNL     1       1.555   0.202   0.000  0.00  0.00    +0.000 S 
BRANCH   7   8
ATOM      8  C   UNL     1       2.292  -0.169   0.000  0.00  0.00    +0.000 C 
ATOM      9  O   UNL     1       2.339  -0.992   0.000  0.00  0.00    +0.000 OA
BRANCH   8  10
ATOM     10  C   UNL     1       2.981   0.284   0.000  0.00  0.00    +0.000 C 
BRANCH  10  11
ATOM     11  C   UNL     1       3.718  -0.086   0.000  0.00  0.00    +0.000 C 
BRANCH  11  12
ATOM     12  C   UNL     1       4.408   0.367   0.000  0.00  0.00    +0.000 C 
BRANCH  12  13
ATOM     13  C   UNL     1       5.145  -0.004   0.000  0.00  0.00    +0.000 C 
BRANCH  13  14
ATOM     14  C   UNL     1       5.834   0.449   0.000  0.00  0.00    +0.000 C 
BRANCH  14  15
ATOM     15  C   UNL     1       6.572   0.078   0.000  0.00  0.00    +0.000 C 
ATOM     16  C   UNL     1       7.261   0.531   0.000  0.00  0.00    +0.000 C 
ENDBRANCH  14  15
ENDBRANCH  13  14
ENDBRANCH  12  13
ENDBRANCH  11  12
ENDBRANCH  10  11
ENDBRANCH   8  10
ENDBRANCH   7   8
ENDBRANCH   6   7
ENDBRANCH   5   6
ENDBRANCH   4   5
ENDBRANCH   1   2
BRANCH   1  17
ATOM     17  C   UNL     1      -2.725  -0.045   0.000  0.00  0.00    +0.000 C 
BRANCH  17  20
ATOM     18  C   UNL     1      -4.152  -0.128   0.000  0.00  0.00    +0.000 C 
ATOM     19  O   UNL     1      -4.199   0.696   0.000  0.00  0.00    +0.000 OA
ATOM     20  N   UNL     1      -3.414  -0.498   0.000  0.00  0.00    +0.000 NA
BRANCH  18  21
ATOM     21  C   UNL     1      -4.841  -0.581   0.000  0.00  0.00    +0.000 C 
ATOM     22  O   UNL     1      -4.793  -1.404   0.000  0.00  0.00    +0.000 OA
BRANCH  21  23
ATOM     23  C   UNL     1      -5.578  -0.210   0.000  0.00  0.00    +0.000 C 
ATOM     24  C   UNL     1      -5.949  -0.947   0.000  0.00  0.00    +0.000 C 
ATOM     25  C   UNL     1      -5.207   0.527   0.000  0.00  0.00    +0.000 C 
BRANCH  23  26
ATOM     26  C   UNL     1      -6.315   0.161   0.000  0.00  0.00    +0.000 C 
BRANCH  26  27
ATOM     27  O   UNL     1      -7.005  -0.292   0.000  0.00  0.00    +0.000 OA
BRANCH  27  29
ATOM     28  O   UNL     1      -8.479   0.449   0.000  0.00  0.00    +0.000 OA
ATOM     29  P   UNL     1      -7.742   0.078   0.000  0.00  0.00    +0.000 P 
ATOM     30  O   UNL     1      -8.112  -0.659   0.000  0.00  0.00    +0.000 OA
ATOM     31  O   UNL     1      -7.371   0.815   0.000  0.00  0.00    +0.000 OA
ENDBRANCH  27  29
ENDBRANCH  26  27
ENDBRANCH  23  26
ENDBRANCH  21  23
ENDBRANCH  18  21
ENDBRANCH  17  20
ENDBRANCH   1  17
TORSDOF 18
