REMARK  Name = SY1
REMARK  3 active torsions:
REMARK  status: ('A' for Active; 'I' for Inactive)
REMARK    1  A    between atoms: C_9  and  C_17
REMARK    2  A    between atoms: C_13  and  C_15
REMARK    3  A    between atoms: C_17  and  N_18
REMARK                            x       y       z     vdW  Elec       q    Type
REMARK                         _______ _______ _______ _____ _____    ______ ____
ROOT
ATOM      1  N   UNL     1      -2.530   0.357   0.000  0.00  0.00    +0.000 NA
ATOM      2  C   UNL     1      -1.101  -1.293   0.000  0.00  0.00    +0.000 C 
ATOM      3  C   UNL     1      -0.387  -0.880   0.000  0.00  0.00    +0.000 C 
ATOM      4  C   UNL     1      -1.101   0.357   0.000  0.00  0.00    +0.000 C 
ATOM      5  C   UNL     1       0.328   0.357   0.000  0.00  0.00    +0.000 A 
ATOM      6  C   UNL     1       1.757   0.357   0.000  0.00  0.00    +0.000 A 
ATOM      7  C   UNL     1       3.186   1.182   0.000  0.00  0.00    +0.000 A 
ATOM      8  C   UNL     1       1.757   1.182   0.000  0.00  0.00    +0.000 A 
ATOM      9  N   UNL     1       0.328   1.182   0.000  0.00  0.00    +0.000 N 
ATOM     10  N   UNL     1      -0.387  -0.055   0.000  0.00  0.00    +0.000 N 
ATOM     11  C   UNL     1      -1.815  -0.880   0.000  0.00  0.00    +0.000 C 
ATOM     12  C   UNL     1      -1.815  -0.055   0.000  0.00  0.00    +0.000 C 
ATOM     13  C   UNL     1       1.042   1.595   0.000  0.00  0.00    +0.000 A 
ATOM     14  O   UNL     1       1.042   2.420   0.000  0.00  0.00    +0.000 OA
ATOM     15  N   UNL     1       1.042  -0.055   0.000  0.00  0.00    +0.000 NA
ATOM     16  C   UNL     1       2.471   1.595   0.000  0.00  0.00    +0.000 A 
ATOM     17  C   UNL     1       3.186   0.357   0.000  0.00  0.00    +0.000 A 
ATOM     18  C   UNL     1       2.471  -0.055   0.000  0.00  0.00    +0.000 A 
ENDROOT
BRANCH   9  19
ATOM     19  C   UNL     1      -0.387   1.595   0.000  0.00  0.00    +0.000 C 
BRANCH  19  20
ATOM     20  C   UNL     1      -0.387   2.420   0.000  0.00  0.00    +0.000 A 
ATOM     21  C   UNL     1       0.328   2.832   0.000  0.00  0.00    +0.000 A 
ATOM     22  C   UNL     1       0.328   3.657   0.000  0.00  0.00    +0.000 A 
ATOM     23  C   UNL     1      -1.101   3.657   0.000  0.00  0.00    +0.000 A 
ATOM     24  C   UNL     1      -1.101   2.832   0.000  0.00  0.00    +0.000 A 
ATOM     25  C   UNL     1      -0.387   4.070   0.000  0.00  0.00    +0.000 A 
BRANCH  24  26
ATOM     26  C   UNL     1      -1.815   2.420   0.000  0.00  0.00    +0.000 C 
ATOM     27  N   UNL     1      -2.530   2.007   0.000  0.00  0.00    +0.000 NA
ENDBRANCH  24  26
ENDBRANCH  19  20
ENDBRANCH   9  19
TORSDOF 3
