REMARK  Name = T10
REMARK  12 active torsions:
REMARK  status: ('A' for Active; 'I' for Inactive)
REMARK    1  A    between atoms: C_2  and  C_3
REMARK    2  A    between atoms: C_3  and  C_5
REMARK    3  A    between atoms: C_5  and  C_6
REMARK    4  A    between atoms: C_5  and  N_13
REMARK    5  A    between atoms: C_6  and  C_7
REMARK    6  A    between atoms: C_14  and  C_16
REMARK    7  A    between atoms: C_16  and  C_17
REMARK    8  A    between atoms: C_16  and  N_24
REMARK    9  A    between atoms: C_17  and  C_18
REMARK   10  A    between atoms: C_25  and  O_27
REMARK   11  A    between atoms: O_27  and  C_28
REMARK   12  A    between atoms: C_28  and  C_29
REMARK                            x       y       z     vdW  Elec       q    Type
REMARK                         _______ _______ _______ _____ _____    ______ ____
ROOT
ATOM      1  C   UNL     1       0.522   0.045   0.000  0.00  0.00    +0.000 C 
ENDROOT
BRANCH   1   2
ATOM      2  N   UNL     1       1.117  -0.527   0.000  0.00  0.00    +0.000 NA
ATOM      3  C   UNL     1       1.909  -0.298   0.000  0.00  0.00    +0.000 C 
ATOM      4  O   UNL     1       2.108   0.503   0.000  0.00  0.00    +0.000 OA
BRANCH   3   5
ATOM      5  O   UNL     1       2.504  -0.870   0.000  0.00  0.00    +0.000 OA
BRANCH   5   6
ATOM      6  C   UNL     1       3.297  -0.641   0.000  0.00  0.00    +0.000 C 
BRANCH   6   7
ATOM      7  C   UNL     1       3.891  -1.213   0.000  0.00  0.00    +0.000 A 
ATOM      8  C   UNL     1       4.684  -0.985   0.000  0.00  0.00    +0.000 A 
ATOM      9  C   UNL     1       5.278  -1.557   0.000  0.00  0.00    +0.000 A 
ATOM     10  C   UNL     1       5.080  -2.357   0.000  0.00  0.00    +0.000 A 
ATOM     11  C   UNL     1       4.287  -2.586   0.000  0.00  0.00    +0.000 A 
ATOM     12  C   UNL     1       3.693  -2.014   0.000  0.00  0.00    +0.000 A 
ENDBRANCH   6   7
ENDBRANCH   5   6
ENDBRANCH   3   5
ENDBRANCH   1   2
BRANCH   1  14
ATOM     13  N   UNL     1      -0.865   0.388   0.000  0.00  0.00    +0.000 NA
ATOM     14  C   UNL     1      -0.270  -0.184   0.000  0.00  0.00    +0.000 C 
ATOM     15  O   UNL     1      -0.468  -0.985   0.000  0.00  0.00    +0.000 OA
BRANCH  13  16
ATOM     16  C   UNL     1      -1.657   0.160   0.000  0.00  0.00    +0.000 C 
BRANCH  16  17
ATOM     17  C   UNL     1      -1.855  -0.641   0.000  0.00  0.00    +0.000 C 
ATOM     18  O   UNL     1      -2.648  -0.870   0.000  0.00  0.00    +0.000 OA
BRANCH  17  20
ATOM     19  O   UNL     1      -1.459  -2.014   0.000  0.00  0.00    +0.000 OA
ATOM     20  C   UNL     1      -1.261  -1.213   0.000  0.00  0.00    +0.000 C 
ENDBRANCH  17  20
ENDBRANCH  16  17
BRANCH  16  21
ATOM     21  C   UNL     1      -2.252   0.732   0.000  0.00  0.00    +0.000 C 
BRANCH  21  22
ATOM     22  C   UNL     1      -3.045   0.503   0.000  0.00  0.00    +0.000 A 
ATOM     23  C   UNL     1      -3.243  -0.298   0.000  0.00  0.00    +0.000 A 
ATOM     24  C   UNL     1      -4.035  -0.527   0.000  0.00  0.00    +0.000 A 
ATOM     25  C   UNL     1      -4.630   0.045   0.000  0.00  0.00    +0.000 A 
ATOM     26  C   UNL     1      -4.432   0.846   0.000  0.00  0.00    +0.000 A 
ATOM     27  C   UNL     1      -3.639   1.075   0.000  0.00  0.00    +0.000 A 
ENDBRANCH  21  22
ENDBRANCH  16  21
ENDBRANCH  13  16
ENDBRANCH   1  14
BRANCH   1  28
ATOM     28  C   UNL     1       0.721   0.846   0.000  0.00  0.00    +0.000 C 
BRANCH  28  29
ATOM     29  C   UNL     1       0.126   1.418   0.000  0.00  0.00    +0.000 A 
ATOM     30  C   UNL     1      -0.667   1.189   0.000  0.00  0.00    +0.000 A 
ATOM     31  C   UNL     1      -1.261   1.761   0.000  0.00  0.00    +0.000 A 
ATOM     32  C   UNL     1      -1.063   2.562   0.000  0.00  0.00    +0.000 A 
ATOM     33  C   UNL     1      -0.270   2.791   0.000  0.00  0.00    +0.000 A 
ATOM     34  C   UNL     1       0.324   2.219   0.000  0.00  0.00    +0.000 A 
ENDBRANCH  28  29
ENDBRANCH   1  28
TORSDOF 12
