REMARK  Name = T12
REMARK  8 active torsions:
REMARK  status: ('A' for Active; 'I' for Inactive)
REMARK    1  A    between atoms: N_2  and  C_4
REMARK    2  A    between atoms: C_9  and  C_10
REMARK    3  A    between atoms: C_17  and  O_18
REMARK    4  A    between atoms: O_18  and  C_19
REMARK    5  A    between atoms: C_19  and  C_21
REMARK    6  A    between atoms: N_28  and  C_29
REMARK    7  A    between atoms: C_29  and  C_30
REMARK    8  A    between atoms: C_30  and  C_31
REMARK                            x       y       z     vdW  Elec       q    Type
REMARK                         _______ _______ _______ _____ _____    ______ ____
ROOT
ATOM      1  C   UNL     1      -1.844   3.224   0.000  0.00  0.00    +0.000 C 
ATOM      2  O   UNL     1      -1.432   2.509   0.000  0.00  0.00    +0.000 OA
ATOM      3  N   UNL     1      -1.432   3.938   0.000  0.00  0.00    +0.000 NA
ATOM      4  C   UNL     1      -0.607   3.938   0.000  0.00  0.00    +0.000 A 
ATOM      5  N   UNL     1      -0.122   4.606   0.000  0.00  0.00    +0.000 NA
ATOM      6  C   UNL     1       0.663   4.351   0.000  0.00  0.00    +0.000 A 
ATOM      7  C   UNL     1       1.377   4.763   0.000  0.00  0.00    +0.000 A 
ATOM      8  C   UNL     1       2.092   4.351   0.000  0.00  0.00    +0.000 A 
ATOM      9  C   UNL     1       2.092   3.526   0.000  0.00  0.00    +0.000 A 
ATOM     10  C   UNL     1       0.663   3.526   0.000  0.00  0.00    +0.000 A 
ATOM     11  C   UNL     1       1.377   3.113   0.000  0.00  0.00    +0.000 A 
ATOM     12  N   UNL     1      -0.122   3.271   0.000  0.00  0.00    +0.000 N 
ENDROOT
BRANCH   1  18
ATOM     13  C   UNL     1      -3.907   3.938   0.000  0.00  0.00    +0.000 A 
ATOM     14  C   UNL     1      -4.319   3.224   0.000  0.00  0.00    +0.000 A 
ATOM     15  C   UNL     1      -3.907   2.509   0.000  0.00  0.00    +0.000 A 
ATOM     16  C   UNL     1      -3.082   2.509   0.000  0.00  0.00    +0.000 A 
ATOM     17  C   UNL     1      -3.082   3.938   0.000  0.00  0.00    +0.000 A 
ATOM     18  C   UNL     1      -2.669   3.224   0.000  0.00  0.00    +0.000 A 
BRANCH  13  20
ATOM     19  O   UNL     1      -5.144   4.653   0.000  0.00  0.00    +0.000 OA
ATOM     20  N   UNL     1      -4.319   4.653   0.000  0.00  0.00    +0.000 N 
ATOM     21  O   UNL     1      -3.907   5.367   0.000  0.00  0.00    +0.000 OA
ENDBRANCH  13  20
ENDBRANCH   1  18
BRANCH   8  22
ATOM     22  O   UNL     1       2.806   4.763   0.000  0.00  0.00    +0.000 OA
BRANCH  22  23
ATOM     23  C   UNL     1       3.521   4.351   0.000  0.00  0.00    +0.000 C 
ATOM     24  O   UNL     1       3.521   3.526   0.000  0.00  0.00    +0.000 OA
BRANCH  23  25
ATOM     25  C   UNL     1       4.235   4.763   0.000  0.00  0.00    +0.000 C 
ATOM     26  C   UNL     1       4.950   5.176   0.000  0.00  0.00    +0.000 C 
ATOM     27  C   UNL     1       4.648   4.049   0.000  0.00  0.00    +0.000 C 
ATOM     28  C   UNL     1       3.823   5.478   0.000  0.00  0.00    +0.000 C 
ENDBRANCH  23  25
ENDBRANCH  22  23
ENDBRANCH   8  22
BRANCH  12  29
ATOM     29  C   UNL     1      -0.377   2.486   0.000  0.00  0.00    +0.000 C 
BRANCH  29  30
ATOM     30  C   UNL     1       0.175   1.873   0.000  0.00  0.00    +0.000 C 
BRANCH  30  31
ATOM     31  C   UNL     1       0.982   2.045   0.000  0.00  0.00    +0.000 C 
ATOM     32  O   UNL     1       1.534   1.431   0.000  0.00  0.00    +0.000 OA
ENDBRANCH  30  31
ENDBRANCH  29  30
ENDBRANCH  12  29
TORSDOF 8
