REMARK  Name = T1D
REMARK  3 active torsions:
REMARK  status: ('A' for Active; 'I' for Inactive)
REMARK    1  A    between atoms: N_7  and  C_9
REMARK    2  A    between atoms: C_11  and  C_17
REMARK    3  A    between atoms: C_14  and  O_15
REMARK                            x       y       z     vdW  Elec       q    Type
REMARK                         _______ _______ _______ _____ _____    ______ ____
ROOT
ATOM      1  C   UNL     1       0.936   0.383   0.000  0.00  0.00    +0.000 A 
ATOM      2  C   UNL     1       0.323  -0.169   0.000  0.00  0.00    +0.000 A 
ATOM      3  C   UNL     1      -0.462   0.086   0.000  0.00  0.00    +0.000 A 
ATOM      4  C   UNL     1      -0.633   0.893   0.000  0.00  0.00    +0.000 A 
ATOM      5  C   UNL     1      -0.020   1.445   0.000  0.00  0.00    +0.000 A 
ATOM      6  C   UNL     1       0.764   1.190   0.000  0.00  0.00    +0.000 A 
ENDROOT
BRANCH   1  13
ATOM      7  O   UNL     1       3.840   0.383   0.000  0.00  0.00    +0.000 OA
ATOM      8  C   UNL     1       3.055   0.128   0.000  0.00  0.00    +0.000 C 
ATOM      9  N   UNL     1       2.800  -0.656   0.000  0.00  0.00    +0.000 NA
ATOM     10  S   UNL     1       1.975  -0.656   0.000  0.00  0.00    +0.000 S 
ATOM     11  O   UNL     1       2.062  -1.477   0.000  0.00  0.00    +0.000 OA
ATOM     12  O   UNL     1       1.168  -0.828   0.000  0.00  0.00    +0.000 OA
ATOM     13  N   UNL     1       1.720   0.128   0.000  0.00  0.00    +0.000 N 
ATOM     14  C   UNL     1       2.388   0.613   0.000  0.00  0.00    +0.000 C 
ENDBRANCH   1  13
BRANCH   3  15
ATOM     15  C   UNL     1      -1.075  -0.466   0.000  0.00  0.00    +0.000 A 
ATOM     16  C   UNL     1      -0.903  -1.273   0.000  0.00  0.00    +0.000 A 
ATOM     17  C   UNL     1      -1.516  -1.825   0.000  0.00  0.00    +0.000 A 
ATOM     18  C   UNL     1      -2.301  -1.570   0.000  0.00  0.00    +0.000 A 
ATOM     19  C   UNL     1      -2.473  -0.763   0.000  0.00  0.00    +0.000 A 
ATOM     20  C   UNL     1      -1.860  -0.211   0.000  0.00  0.00    +0.000 A 
ENDBRANCH   3  15
BRANCH   6  21
ATOM     21  O   UNL     1       1.377   1.742   0.000  0.00  0.00    +0.000 OA
ATOM     22  C   UNL     1       1.206   2.549   0.000  0.00  0.00    +0.000 C 
ENDBRANCH   6  21
TORSDOF 3
