REMARK  Name = T2D
REMARK  1 active torsions:
REMARK  status: ('A' for Active; 'I' for Inactive)
REMARK    1  A    between atoms: C_6  and  N_7
REMARK                            x       y       z     vdW  Elec       q    Type
REMARK                         _______ _______ _______ _____ _____    ______ ____
ROOT
ATOM      1  N   UNL     1      -0.768  -1.209   0.000  0.00  0.00    +0.000 N 
ATOM      2  S   UNL     1      -1.024  -1.994   0.000  0.00  0.00    +0.000 S 
ATOM      3  N   UNL     1      -1.849  -1.994   0.000  0.00  0.00    +0.000 NA
ATOM      4  C   UNL     1      -2.103  -1.209   0.000  0.00  0.00    +0.000 C 
ATOM      5  C   UNL     1      -1.436  -0.724   0.000  0.00  0.00    +0.000 C 
ATOM      6  O   UNL     1      -2.888  -0.954   0.000  0.00  0.00    +0.000 OA
ATOM      7  O   UNL     1      -0.273  -2.337   0.000  0.00  0.00    +0.000 OA
ATOM      8  O   UNL     1      -0.929  -2.813   0.000  0.00  0.00    +0.000 OA
ENDROOT
BRANCH   1  14
ATOM      9  C   UNL     1       0.188  -0.147   0.000  0.00  0.00    +0.000 A 
ATOM     10  C   UNL     1       0.972   0.108   0.000  0.00  0.00    +0.000 A 
ATOM     11  C   UNL     1       1.585  -0.444   0.000  0.00  0.00    +0.000 A 
ATOM     12  C   UNL     1       1.414  -1.251   0.000  0.00  0.00    +0.000 A 
ATOM     13  C   UNL     1       0.629  -1.506   0.000  0.00  0.00    +0.000 A 
ATOM     14  C   UNL     1       0.016  -0.954   0.000  0.00  0.00    +0.000 A 
ENDBRANCH   1  14
TORSDOF 1
