REMARK  Name = T2M
REMARK  4 active torsions:
REMARK  status: ('A' for Active; 'I' for Inactive)
REMARK    1  A    between atoms: N_2  and  N_3
REMARK    2  A    between atoms: N_2  and  C_11
REMARK    3  A    between atoms: C_4  and  O_6
REMARK    4  A    between atoms: O_6  and  C_7
REMARK                            x       y       z     vdW  Elec       q    Type
REMARK                         _______ _______ _______ _____ _____    ______ ____
ROOT
ATOM      1  N   UNL     1       1.020   0.697   0.000  0.00  0.00    +0.000 NA
ATOM      2  C   UNL     1       0.305   0.285   0.000  0.00  0.00    +0.000 C 
ATOM      3  O   UNL     1       0.305  -0.540   0.000  0.00  0.00    +0.000 OA
ENDROOT
BRANCH   1   5
ATOM      4  C   UNL     1       1.734  -0.540   0.000  0.00  0.00    +0.000 C 
ATOM      5  N   UNL     1       1.734   0.285   0.000  0.00  0.00    +0.000 N 
BRANCH   5   6
ATOM      6  C   UNL     1       2.449   0.697   0.000  0.00  0.00    +0.000 C 
ATOM      7  N   UNL     1       3.163   1.110   0.000  0.00  0.00    +0.000 NA
ENDBRANCH   5   6
ENDBRANCH   1   5
BRANCH   2   8
ATOM      8  O   UNL     1      -0.409   0.697   0.000  0.00  0.00    +0.000 OA
BRANCH   8   9
ATOM      9  C   UNL     1      -1.124   0.285   0.000  0.00  0.00    +0.000 C 
ATOM     10  C   UNL     1      -1.838  -0.128   0.000  0.00  0.00    +0.000 C 
ATOM     11  C   UNL     1      -0.711  -0.430   0.000  0.00  0.00    +0.000 C 
ATOM     12  C   UNL     1      -1.536   0.999   0.000  0.00  0.00    +0.000 C 
ENDBRANCH   8   9
ENDBRANCH   2   8
TORSDOF 4
