REMARK  Name = T3S
REMARK  3 active torsions:
REMARK  status: ('A' for Active; 'I' for Inactive)
REMARK    1  A    between atoms: N_6  and  C_7
REMARK    2  A    between atoms: C_7  and  C_8
REMARK    3  A    between atoms: C_13  and  N_14
REMARK                            x       y       z     vdW  Elec       q    Type
REMARK                         _______ _______ _______ _____ _____    ______ ____
ROOT
ATOM      1  C   UNL     1       0.390   0.287   0.000  0.00  0.00    +0.000 C 
ATOM      2  O   UNL     1       1.057  -0.198   0.000  0.00  0.00    +0.000 OA
ATOM      3  C   UNL     1      -0.278  -0.198   0.000  0.00  0.00    +0.000 C 
ATOM      4  O   UNL     1      -1.062   0.057   0.000  0.00  0.00    +0.000 OA
ATOM      5  C   UNL     1      -0.022  -0.982   0.000  0.00  0.00    +0.000 C 
ATOM      6  C   UNL     1       0.802  -0.982   0.000  0.00  0.00    +0.000 C 
ENDROOT
BRANCH   6   7
ATOM      7  N   UNL     1       1.287  -1.650   0.000  0.00  0.00    +0.000 N 
ATOM      8  C   UNL     1       2.108  -1.563   0.000  0.00  0.00    +0.000 A 
ATOM      9  C   UNL     1       2.593  -2.231   0.000  0.00  0.00    +0.000 A 
ATOM     10  C   UNL     1       3.413  -2.145   0.000  0.00  0.00    +0.000 C 
ATOM     11  C   UNL     1       2.257  -2.985   0.000  0.00  0.00    +0.000 A 
ATOM     12  O   UNL     1       2.742  -3.652   0.000  0.00  0.00    +0.000 OA
ATOM     13  N   UNL     1       1.437  -3.071   0.000  0.00  0.00    +0.000 NA
ATOM     14  C   UNL     1       0.952  -2.404   0.000  0.00  0.00    +0.000 A 
ATOM     15  O   UNL     1       0.131  -2.490   0.000  0.00  0.00    +0.000 OA
ENDBRANCH   6   7
BRANCH   1  16
ATOM     16  C   UNL     1       0.390   1.112   0.000  0.00  0.00    +0.000 C 
BRANCH  16  22
ATOM     17  C   UNL     1      -1.039   1.112   0.000  0.00  0.00    +0.000 C 
ATOM     18  C   UNL     1      -1.753   1.525   0.000  0.00  0.00    +0.000 C 
ATOM     19  C   UNL     1      -1.753   2.350   0.000  0.00  0.00    +0.000 C 
ATOM     20  C   UNL     1      -1.039   2.762   0.000  0.00  0.00    +0.000 C 
ATOM     21  C   UNL     1      -0.325   2.350   0.000  0.00  0.00    +0.000 C 
ATOM     22  N   UNL     1      -0.325   1.525   0.000  0.00  0.00    +0.000 NA
ENDBRANCH  16  22
ENDBRANCH   1  16
TORSDOF 3
