REMARK  Name = T98
REMARK  2 active torsions:
REMARK  status: ('A' for Active; 'I' for Inactive)
REMARK    1  A    between atoms: C_5  and  C_13
REMARK    2  A    between atoms: C_16  and  C_19
REMARK                            x       y       z     vdW  Elec       q    Type
REMARK                         _______ _______ _______ _____ _____    ______ ____
ROOT
ATOM      1  C   UNL     1      -2.071   0.776   0.000  0.00  0.00    +0.000 C 
ATOM      2  C   UNL     1      -1.540   0.144   0.000  0.00  0.00    +0.000 C 
ATOM      3  C   UNL     1      -0.826  -0.269   0.000  0.00  0.00    +0.000 A 
ATOM      4  C   UNL     1      -0.112   0.144   0.000  0.00  0.00    +0.000 A 
ATOM      5  C   UNL     1       0.603  -0.269   0.000  0.00  0.00    +0.000 A 
ATOM      6  C   UNL     1       0.603  -1.094   0.000  0.00  0.00    +0.000 A 
ATOM      7  C   UNL     1      -0.112  -1.506   0.000  0.00  0.00    +0.000 A 
ATOM      8  C   UNL     1      -0.826  -1.094   0.000  0.00  0.00    +0.000 A 
ATOM      9  N   UNL     1      -1.540  -1.506   0.000  0.00  0.00    +0.000 NA
ATOM     10  C   UNL     1      -2.255  -1.094   0.000  0.00  0.00    +0.000 C 
ATOM     11  S   UNL     1      -2.969  -1.506   0.000  0.00  0.00    +0.000 S 
ATOM     12  O   UNL     1      -2.255  -0.269   0.000  0.00  0.00    +0.000 OA
ATOM     13  C   UNL     1      -1.010   0.776   0.000  0.00  0.00    +0.000 C 
ENDROOT
BRANCH   5  14
ATOM     14  C   UNL     1       1.317   0.144   0.000  0.00  0.00    +0.000 A 
ATOM     15  C   UNL     1       1.404   0.964   0.000  0.00  0.00    +0.000 A 
ATOM     16  C   UNL     1       2.211   1.136   0.000  0.00  0.00    +0.000 A 
ATOM     17  C   UNL     1       2.623   0.421   0.000  0.00  0.00    +0.000 A 
ATOM     18  N   UNL     1       2.071  -0.192   0.000  0.00  0.00    +0.000 N 
ATOM     19  C   UNL     1       2.243  -0.999   0.000  0.00  0.00    +0.000 C 
BRANCH  17  20
ATOM     20  C   UNL     1       3.444   0.335   0.000  0.00  0.00    +0.000 C 
ATOM     21  N   UNL     1       4.264   0.249   0.000  0.00  0.00    +0.000 NA
ENDBRANCH  17  20
ENDBRANCH   5  14
TORSDOF 2
