REMARK  Name = TAQ
REMARK  0 active torsions:
REMARK  status: ('A' for Active; 'I' for Inactive)
REMARK                            x       y       z     vdW  Elec       q    Type
REMARK                         _______ _______ _______ _____ _____    ______ ____
ROOT
ATOM      1  C   UNL     1      -1.414  -0.195   0.000  0.00  0.00    +0.000 A 
ATOM      2  N   UNL     1      -2.129  -0.608   0.000  0.00  0.00    +0.000 NA
ATOM      3  C   UNL     1      -1.414   0.630   0.000  0.00  0.00    +0.000 A 
ATOM      4  C   UNL     1      -0.700   1.042   0.000  0.00  0.00    +0.000 A 
ATOM      5  C   UNL     1       0.015   0.630   0.000  0.00  0.00    +0.000 A 
ATOM      6  N   UNL     1       0.729   1.042   0.000  0.00  0.00    +0.000 NA
ATOM      7  C   UNL     1       1.444   0.630   0.000  0.00  0.00    +0.000 A 
ATOM      8  N   UNL     1       2.158   1.042   0.000  0.00  0.00    +0.000 NA
ATOM      9  N   UNL     1       1.444  -0.195   0.000  0.00  0.00    +0.000 NA
ATOM     10  C   UNL     1       0.729  -0.608   0.000  0.00  0.00    +0.000 A 
ATOM     11  C   UNL     1       0.015  -0.195   0.000  0.00  0.00    +0.000 A 
ATOM     12  C   UNL     1      -0.700  -0.608   0.000  0.00  0.00    +0.000 A 
ATOM     13  N   UNL     1       0.729  -1.433   0.000  0.00  0.00    +0.000 NA
ENDROOT
TORSDOF 0
