REMARK  Name = TBL
REMARK  5 active torsions:
REMARK  status: ('A' for Active; 'I' for Inactive)
REMARK    1  A    between atoms: S_2  and  N_4
REMARK    2  A    between atoms: S_2  and  C_10
REMARK    3  A    between atoms: N_4  and  C_5
REMARK    4  A    between atoms: C_5  and  C_7
REMARK    5  A    between atoms: C_13  and  O_16
REMARK                            x       y       z     vdW  Elec       q    Type
REMARK                         _______ _______ _______ _____ _____    ______ ____
ROOT
ATOM      1  O   UNL     1      -0.209  -0.912   0.000  0.00  0.00    +0.000 OA
ATOM      2  S   UNL     1       0.204  -0.197   0.000  0.00  0.00    +0.000 S 
ATOM      3  O   UNL     1       0.616   0.517   0.000  0.00  0.00    +0.000 OA
ENDROOT
BRANCH   2   4
ATOM      4  C   UNL     1      -0.511   0.215   0.000  0.00  0.00    +0.000 A 
ATOM      5  C   UNL     1      -1.225  -0.197   0.000  0.00  0.00    +0.000 A 
ATOM      6  C   UNL     1      -1.940   0.215   0.000  0.00  0.00    +0.000 A 
ATOM      7  C   UNL     1      -1.940   1.040   0.000  0.00  0.00    +0.000 A 
ATOM      8  C   UNL     1      -1.225   1.453   0.000  0.00  0.00    +0.000 A 
ATOM      9  C   UNL     1      -0.511   1.040   0.000  0.00  0.00    +0.000 A 
BRANCH   7  10
ATOM     10  O   UNL     1      -2.654   1.453   0.000  0.00  0.00    +0.000 OA
ATOM     11  C   UNL     1      -3.369   1.040   0.000  0.00  0.00    +0.000 C 
ENDBRANCH   7  10
ENDBRANCH   2   4
BRANCH   2  12
ATOM     12  N   UNL     1       0.918  -0.610   0.000  0.00  0.00    +0.000 NA
BRANCH  12  13
ATOM     13  C   UNL     1       1.633  -0.197   0.000  0.00  0.00    +0.000 C 
ATOM     14  C   UNL     1       1.633   0.628   0.000  0.00  0.00    +0.000 C 
BRANCH  13  15
ATOM     15  C   UNL     1       2.347  -0.610   0.000  0.00  0.00    +0.000 C 
ATOM     16  O   UNL     1       3.062  -0.197   0.000  0.00  0.00    +0.000 OA
ATOM     17  O   UNL     1       2.347  -1.435   0.000  0.00  0.00    +0.000 OA
ENDBRANCH  13  15
ENDBRANCH  12  13
ENDBRANCH   2  12
TORSDOF 5
