REMARK  Name = TC8
REMARK  2 active torsions:
REMARK  status: ('A' for Active; 'I' for Inactive)
REMARK    1  A    between atoms: S_2  and  C_3
REMARK    2  A    between atoms: N_13  and  C_14
REMARK                            x       y       z     vdW  Elec       q    Type
REMARK                         _______ _______ _______ _____ _____    ______ ____
ROOT
ATOM      1  C   UNL     1      -0.329   0.710   0.000  0.00  0.00    +0.000 A 
ATOM      2  N   UNL     1       0.386   1.122   0.000  0.00  0.00    +0.000 NA
ATOM      3  C   UNL     1       1.100   0.710   0.000  0.00  0.00    +0.000 A 
ATOM      4  C   UNL     1       1.815   1.122   0.000  0.00  0.00    +0.000 A 
ATOM      5  C   UNL     1       2.529   0.710   0.000  0.00  0.00    +0.000 A 
ATOM      6  C   UNL     1       2.529  -0.115   0.000  0.00  0.00    +0.000 A 
ATOM      7  C   UNL     1       1.815  -0.528   0.000  0.00  0.00    +0.000 A 
ATOM      8  C   UNL     1       1.100  -0.115   0.000  0.00  0.00    +0.000 A 
ATOM      9  C   UNL     1       0.386  -0.528   0.000  0.00  0.00    +0.000 A 
ATOM     10  O   UNL     1       0.386  -1.353   0.000  0.00  0.00    +0.000 OA
ATOM     11  N   UNL     1      -0.329  -0.115   0.000  0.00  0.00    +0.000 N 
ENDROOT
BRANCH  11  12
ATOM     12  C   UNL     1      -1.043  -0.528   0.000  0.00  0.00    +0.000 A 
ATOM     13  C   UNL     1      -1.043  -1.353   0.000  0.00  0.00    +0.000 A 
ATOM     14  F   UNL     1      -0.329  -1.765   0.000  0.00  0.00    +0.000 F 
ATOM     15  C   UNL     1      -1.758  -1.765   0.000  0.00  0.00    +0.000 A 
ATOM     16  C   UNL     1      -2.472  -1.353   0.000  0.00  0.00    +0.000 A 
ATOM     17  C   UNL     1      -2.472  -0.528   0.000  0.00  0.00    +0.000 A 
ATOM     18  C   UNL     1      -1.758  -0.115   0.000  0.00  0.00    +0.000 A 
ATOM     19  F   UNL     1      -1.758   0.710   0.000  0.00  0.00    +0.000 F 
ENDBRANCH  11  12
BRANCH   1  21
ATOM     20  C   UNL     1      -1.043   1.947   0.000  0.00  0.00    +0.000 C 
ATOM     21  S   UNL     1      -1.043   1.122   0.000  0.00  0.00    +0.000 S 
ENDBRANCH   1  21
TORSDOF 2
