REMARK  Name = TCK
REMARK  9 active torsions:
REMARK  status: ('A' for Active; 'I' for Inactive)
REMARK    1  A    between atoms: S_1  and  C_4
REMARK    2  A    between atoms: S_1  and  N_11
REMARK    3  A    between atoms: N_11  and  C_12
REMARK    4  A    between atoms: C_12  and  C_13
REMARK    5  A    between atoms: C_12  and  C_15
REMARK    6  A    between atoms: C_13  and  C_20
REMARK    7  A    between atoms: C_15  and  C_16
REMARK    8  A    between atoms: C_16  and  C_17
REMARK    9  A    between atoms: C_17  and  C_18
REMARK                            x       y       z     vdW  Elec       q    Type
REMARK                         _______ _______ _______ _____ _____    ______ ____
ROOT
ATOM      1  N   UNL     1      -0.133   0.873   0.000  0.00  0.00    +0.000 NA
ENDROOT
BRANCH   1   2
ATOM      2  S   UNL     1      -0.958   0.873   0.000  0.00  0.00    +0.000 S 
ATOM      3  O   UNL     1      -0.958   1.698   0.000  0.00  0.00    +0.000 OA
ATOM      4  O   UNL     1      -0.958   0.048   0.000  0.00  0.00    +0.000 OA
BRANCH   2   5
ATOM      5  C   UNL     1      -1.783   0.873   0.000  0.00  0.00    +0.000 A 
ATOM      6  C   UNL     1      -2.195   0.159   0.000  0.00  0.00    +0.000 A 
ATOM      7  C   UNL     1      -3.020   0.159   0.000  0.00  0.00    +0.000 A 
ATOM      8  C   UNL     1      -3.433   0.873   0.000  0.00  0.00    +0.000 A 
ATOM      9  C   UNL     1      -3.020   1.587   0.000  0.00  0.00    +0.000 A 
ATOM     10  C   UNL     1      -2.195   1.587   0.000  0.00  0.00    +0.000 A 
ATOM     11  C   UNL     1      -4.258   0.873   0.000  0.00  0.00    +0.000 C 
ENDBRANCH   2   5
ENDBRANCH   1   2
BRANCH   1  12
ATOM     12  C   UNL     1       0.280   0.159   0.000  0.00  0.00    +0.000 C 
BRANCH  12  13
ATOM     13  C   UNL     1      -0.133  -0.556   0.000  0.00  0.00    +0.000 C 
ATOM     14  O   UNL     1      -0.958  -0.556   0.000  0.00  0.00    +0.000 OA
BRANCH  13  15
ATOM     15  C   UNL     1       0.280  -1.270   0.000  0.00  0.00    +0.000 C 
ATOM     16 CL   UNL     1      -0.133  -1.985   0.000  0.00  0.00    +0.000 Cl
ENDBRANCH  13  15
ENDBRANCH  12  13
BRANCH  12  17
ATOM     17  C   UNL     1       1.105   0.159   0.000  0.00  0.00    +0.000 C 
BRANCH  17  18
ATOM     18  C   UNL     1       1.517  -0.556   0.000  0.00  0.00    +0.000 C 
BRANCH  18  19
ATOM     19  C   UNL     1       2.342  -0.556   0.000  0.00  0.00    +0.000 C 
BRANCH  19  20
ATOM     20  C   UNL     1       2.755  -1.270   0.000  0.00  0.00    +0.000 C 
ATOM     21  N   UNL     1       3.580  -1.270   0.000  0.00  0.00    +0.000 NA
ENDBRANCH  19  20
ENDBRANCH  18  19
ENDBRANCH  17  18
ENDBRANCH  12  17
ENDBRANCH   1  12
TORSDOF 9
