REMARK  Name = TCM
REMARK  0 active torsions:
REMARK  status: ('A' for Active; 'I' for Inactive)
REMARK                            x       y       z     vdW  Elec       q    Type
REMARK                         _______ _______ _______ _____ _____    ______ ____
ROOT
ATOM      1  C   UNL     1      -0.165  -0.626   0.000  0.00  0.00    +0.000 C 
ATOM      2  C   UNL     1      -0.940  -1.016   0.000  0.00  0.00    +0.000 C 
ATOM      3  C   UNL     1      -0.575  -0.356   0.000  0.00  0.00    +0.000 C 
ATOM      4  C   UNL     1       0.065   0.095   0.000  0.00  0.00    +0.000 C 
ATOM      5  C   UNL     1       0.861  -0.371   0.000  0.00  0.00    +0.000 C 
ATOM      6  C   UNL     1       0.566  -0.996   0.000  0.00  0.00    +0.000 C 
ATOM      7  C   UNL     1      -0.095   0.910   0.000  0.00  0.00    +0.000 C 
ATOM      8  C   UNL     1      -0.674   1.497   0.000  0.00  0.00    +0.000 C 
ATOM      9  C   UNL     1       0.392   1.576   0.000  0.00  0.00    +0.000 C 
ATOM     10  C   UNL     1      -0.166  -1.451   0.000  0.00  0.00    +0.000 C 
ATOM     11  S   UNL     1      -1.535  -1.588   0.000  0.00  0.00    +0.000 S 
ENDROOT
TORSDOF 0
