REMARK  Name = TCO
REMARK  5 active torsions:
REMARK  status: ('A' for Active; 'I' for Inactive)
REMARK    1  A    between atoms: N_1  and  CA_2
REMARK    2  A    between atoms: CA_2  and  C_3
REMARK    3  A    between atoms: CA_2  and  C_10
REMARK    4  A    between atoms: C_11  and  O_13
REMARK    5  A    between atoms: O_13  and  C_15
REMARK                            x       y       z     vdW  Elec       q    Type
REMARK                         _______ _______ _______ _____ _____    ______ ____
ROOT
ATOM      1  CA  UNL     1      -0.416   0.298   0.000  0.00  0.00    +0.000 C 
ENDROOT
BRANCH   1   7
ATOM      2  C   UNL     1      -1.130  -0.940   0.000  0.00  0.00    +0.000 C 
ATOM      3  C   UNL     1      -1.845  -1.352   0.000  0.00  0.00    +0.000 C 
ATOM      4  C   UNL     1      -2.559  -0.940   0.000  0.00  0.00    +0.000 C 
ATOM      5  C   UNL     1      -2.559  -0.115   0.000  0.00  0.00    +0.000 C 
ATOM      6  C   UNL     1      -1.845   0.298   0.000  0.00  0.00    +0.000 C 
ATOM      7  C   UNL     1      -1.130  -0.115   0.000  0.00  0.00    +0.000 C 
ENDBRANCH   1   7
BRANCH   1   8
ATOM      8  N   UNL     1       0.298  -0.115   0.000  0.00  0.00    +0.000 NA
ATOM      9  C   UNL     1       1.013   0.298   0.000  0.00  0.00    +0.000 C 
ATOM     10  O   UNL     1       1.013   1.123   0.000  0.00  0.00    +0.000 OA
BRANCH   9  11
ATOM     11  O   UNL     1       1.728  -0.115   0.000  0.00  0.00    +0.000 OA
BRANCH  11  13
ATOM     12  C   UNL     1       3.156   0.710   0.000  0.00  0.00    +0.000 C 
ATOM     13  C   UNL     1       2.442   0.298   0.000  0.00  0.00    +0.000 C 
ATOM     14  C   UNL     1       2.854  -0.417   0.000  0.00  0.00    +0.000 C 
ATOM     15  C   UNL     1       2.029   1.012   0.000  0.00  0.00    +0.000 C 
ENDBRANCH  11  13
ENDBRANCH   9  11
ENDBRANCH   1   8
BRANCH   1  16
ATOM     16  C   UNL     1      -0.416   1.123   0.000  0.00  0.00    +0.000 C 
ATOM     17  O   UNL     1       0.298   1.535   0.000  0.00  0.00    +0.000 OA
ENDBRANCH   1  16
TORSDOF 5
