REMARK  Name = TDI
REMARK  4 active torsions:
REMARK  status: ('A' for Active; 'I' for Inactive)
REMARK    1  A    between atoms: S_6  and  C_7
REMARK    2  A    between atoms: C_7  and  C_8
REMARK    3  A    between atoms: N_10  and  C_11
REMARK    4  A    between atoms: C_11  and  C_12
REMARK                            x       y       z     vdW  Elec       q    Type
REMARK                         _______ _______ _______ _____ _____    ______ ____
ROOT
ATOM      1  C   UNL     1       0.634   0.187   0.000  0.00  0.00    +0.000 C 
ENDROOT
BRANCH   1   6
ATOM      2  C   UNL     1       3.103  -0.853   0.000  0.00  0.00    +0.000 A 
ATOM      3  C   UNL     1       1.674  -0.853   0.000  0.00  0.00    +0.000 A 
ATOM      4  C   UNL     1       1.674  -1.677   0.000  0.00  0.00    +0.000 A 
ATOM      5  C   UNL     1       2.388  -2.090   0.000  0.00  0.00    +0.000 A 
ATOM      6  C   UNL     1       0.889  -0.598   0.000  0.00  0.00    +0.000 A 
ATOM      7  C   UNL     1       0.404  -1.265   0.000  0.00  0.00    +0.000 A 
ATOM      8  N   UNL     1       0.889  -1.932   0.000  0.00  0.00    +0.000 NA
ATOM      9  N   UNL     1       2.388  -2.915   0.000  0.00  0.00    +0.000 NA
ATOM     10  N   UNL     1       3.103  -1.677   0.000  0.00  0.00    +0.000 NA
ATOM     11  N   UNL     1       2.388  -0.440   0.000  0.00  0.00    +0.000 NA
ENDBRANCH   1   6
BRANCH   1  14
ATOM     12  C   UNL     1      -1.329   1.026   0.000  0.00  0.00    +0.000 C 
ATOM     13  C   UNL     1      -0.508   1.112   0.000  0.00  0.00    +0.000 C 
ATOM     14  N   UNL     1      -0.173   0.359   0.000  0.00  0.00    +0.000 NA
ATOM     15  C   UNL     1      -0.786  -0.193   0.000  0.00  0.00    +0.000 C 
ATOM     16  C   UNL     1      -1.500   0.219   0.000  0.00  0.00    +0.000 C 
ATOM     17  O   UNL     1      -2.254  -0.117   0.000  0.00  0.00    +0.000 OA
BRANCH  12  18
ATOM     18  C   UNL     1      -1.881   1.639   0.000  0.00  0.00    +0.000 C 
BRANCH  18  20
ATOM     19  C   UNL     1      -3.240   2.081   0.000  0.00  0.00    +0.000 C 
ATOM     20  S   UNL     1      -2.688   1.468   0.000  0.00  0.00    +0.000 S 
ENDBRANCH  18  20
ENDBRANCH  12  18
ENDBRANCH   1  14
TORSDOF 4
