REMARK  Name = TDZ
REMARK  5 active torsions:
REMARK  status: ('A' for Active; 'I' for Inactive)
REMARK    1  A    between atoms: C_14  and  C_16
REMARK    2  A    between atoms: C_16  and  O_17
REMARK    3  A    between atoms: O_17  and  C_18
REMARK    4  A    between atoms: C_23  and  C_24
REMARK    5  A    between atoms: C_24  and  C_25
REMARK                            x       y       z     vdW  Elec       q    Type
REMARK                         _______ _______ _______ _____ _____    ______ ____
ROOT
ATOM      1  C   UNL     1      -0.647  -0.024   0.000  0.00  0.00    +0.000 C 
ENDROOT
BRANCH   1  15
ATOM      2  C   UNL     1       0.177   0.830   0.000  0.00  0.00    +0.000 C 
ATOM      3  C   UNL     1       0.892   1.242   0.000  0.00  0.00    +0.000 C 
ATOM      4  C   UNL     1       1.606   0.830   0.000  0.00  0.00    +0.000 A 
ATOM      5  C   UNL     1       2.321   1.242   0.000  0.00  0.00    +0.000 A 
ATOM      6  C   UNL     1       2.321   2.067   0.000  0.00  0.00    +0.000 C 
ATOM      7  C   UNL     1       3.035   0.830   0.000  0.00  0.00    +0.000 A 
ATOM      8  O   UNL     1       3.750   1.242   0.000  0.00  0.00    +0.000 OA
ATOM      9  C   UNL     1       3.035   0.005   0.000  0.00  0.00    +0.000 A 
ATOM     10  C   UNL     1       3.750  -0.408   0.000  0.00  0.00    +0.000 C 
ATOM     11  C   UNL     1       2.321  -0.408   0.000  0.00  0.00    +0.000 A 
ATOM     12  C   UNL     1       2.321  -1.233   0.000  0.00  0.00    +0.000 C 
ATOM     13  C   UNL     1       1.606   0.005   0.000  0.00  0.00    +0.000 A 
ATOM     14  O   UNL     1       0.892  -0.408   0.000  0.00  0.00    +0.000 OA
ATOM     15  C   UNL     1       0.177   0.005   0.000  0.00  0.00    +0.000 C 
ATOM     16  C   UNL     1      -0.260  -0.695   0.000  0.00  0.00    +0.000 C 
ENDBRANCH   1  15
BRANCH   1  17
ATOM     17  O   UNL     1      -1.034  -0.752   0.000  0.00  0.00    +0.000 OA
BRANCH  17  18
ATOM     18  C   UNL     1      -1.859  -0.781   0.000  0.00  0.00    +0.000 A 
ATOM     19  C   UNL     1      -2.246  -1.510   0.000  0.00  0.00    +0.000 A 
ATOM     20  C   UNL     1      -3.071  -1.538   0.000  0.00  0.00    +0.000 A 
ATOM     21  C   UNL     1      -2.296  -0.082   0.000  0.00  0.00    +0.000 A 
ATOM     22  C   UNL     1      -3.120  -0.110   0.000  0.00  0.00    +0.000 A 
ATOM     23  C   UNL     1      -3.508  -0.839   0.000  0.00  0.00    +0.000 A 
BRANCH  23  24
ATOM     24  C   UNL     1      -4.332  -0.868   0.000  0.00  0.00    +0.000 C 
BRANCH  24  25
ATOM     25  C   UNL     1      -4.769  -0.168   0.000  0.00  0.00    +0.000 C 
ATOM     26  S   UNL     1      -5.593  -0.110   0.000  0.00  0.00    +0.000 S 
ATOM     27  C   UNL     1      -5.792   0.690   0.000  0.00  0.00    +0.000 C 
ATOM     28  O   UNL     1      -6.557   0.999   0.000  0.00  0.00    +0.000 OA
ATOM     29  N   UNL     1      -5.092   1.127   0.000  0.00  0.00    +0.000 NA
ATOM     30  C   UNL     1      -4.460   0.597   0.000  0.00  0.00    +0.000 C 
ATOM     31  O   UNL     1      -3.660   0.797   0.000  0.00  0.00    +0.000 OA
ENDBRANCH  24  25
ENDBRANCH  23  24
ENDBRANCH  17  18
ENDBRANCH   1  17
TORSDOF 5
