REMARK  Name = TF1
REMARK  4 active torsions:
REMARK  status: ('A' for Active; 'I' for Inactive)
REMARK    1  A    between atoms: C_2  and  C_5
REMARK    2  A    between atoms: C_5  and  C_10
REMARK    3  A    between atoms: C_18  and  C_19
REMARK    4  A    between atoms: C_25  and  C_26
REMARK                            x       y       z     vdW  Elec       q    Type
REMARK                         _______ _______ _______ _____ _____    ______ ____
ROOT
ATOM      1  N   UNL     1       1.098   0.022   0.000  0.00  0.00    +0.000 N 
ATOM      2  C   UNL     1       1.812   0.435   0.000  0.00  0.00    +0.000 C 
ATOM      3  C   UNL     1       1.098  -0.802   0.000  0.00  0.00    +0.000 C 
ATOM      4  C   UNL     1       0.383   0.435   0.000  0.00  0.00    +0.000 C 
ATOM      5  O   UNL     1       2.526   0.022   0.000  0.00  0.00    +0.000 OA
ATOM      6  C   UNL     1       0.383  -1.215   0.000  0.00  0.00    +0.000 C 
ATOM      7  C   UNL     1       1.812  -1.215   0.000  0.00  0.00    +0.000 C 
ATOM      8  C   UNL     1      -0.331   0.022   0.000  0.00  0.00    +0.000 C 
ATOM      9  N   UNL     1      -0.331  -0.802   0.000  0.00  0.00    +0.000 N 
ATOM     10  C   UNL     1      -1.046   0.435   0.000  0.00  0.00    +0.000 C 
ATOM     11  C   UNL     1      -1.046  -1.215   0.000  0.00  0.00    +0.000 C 
ATOM     12  O   UNL     1      -1.046  -2.040   0.000  0.00  0.00    +0.000 OA
ENDROOT
BRANCH  11  13
ATOM     13  C   UNL     1      -1.760  -0.802   0.000  0.00  0.00    +0.000 A 
ATOM     14  C   UNL     1      -2.475  -1.215   0.000  0.00  0.00    +0.000 A 
ATOM     15  C   UNL     1      -1.760   0.022   0.000  0.00  0.00    +0.000 A 
ATOM     16  C   UNL     1      -3.189  -0.802   0.000  0.00  0.00    +0.000 A 
ATOM     17  C   UNL     1      -2.475   0.435   0.000  0.00  0.00    +0.000 A 
ATOM     18  C   UNL     1      -3.189   0.022   0.000  0.00  0.00    +0.000 A 
BRANCH  18  19
ATOM     19  C   UNL     1      -3.904   0.435   0.000  0.00  0.00    +0.000 C 
ATOM     20  N   UNL     1      -4.618   0.848   0.000  0.00  0.00    +0.000 NA
ENDBRANCH  18  19
ENDBRANCH  11  13
BRANCH   2  21
ATOM     21  C   UNL     1       1.812   1.260   0.000  0.00  0.00    +0.000 C 
ATOM     22  C   UNL     1       0.987   1.260   0.000  0.00  0.00    +0.000 C 
ATOM     23  O   UNL     1       2.637   1.260   0.000  0.00  0.00    +0.000 OA
BRANCH  21  24
ATOM     24  C   UNL     1       1.812   2.085   0.000  0.00  0.00    +0.000 C 
ATOM     25  F   UNL     1       1.812   2.910   0.000  0.00  0.00    +0.000 F 
ATOM     26  F   UNL     1       0.987   2.085   0.000  0.00  0.00    +0.000 F 
ATOM     27  F   UNL     1       2.637   2.085   0.000  0.00  0.00    +0.000 F 
ENDBRANCH  21  24
ENDBRANCH   2  21
TORSDOF 4
