REMARK  Name = TF3
REMARK  8 active torsions:
REMARK  status: ('A' for Active; 'I' for Inactive)
REMARK    1  A    between atoms: C_1  and  O_4
REMARK    2  A    between atoms: O_4  and  C_8
REMARK    3  A    between atoms: C_8  and  C_10
REMARK    4  A    between atoms: C_9  and  C_11
REMARK    5  A    between atoms: C_11  and  C_14
REMARK    6  A    between atoms: N_17  and  C_20
REMARK    7  A    between atoms: C_19  and  C_21
REMARK    8  A    between atoms: C_20  and  C_22
REMARK                            x       y       z     vdW  Elec       q    Type
REMARK                         _______ _______ _______ _____ _____    ______ ____
ROOT
ATOM      1  C   UNL     1       0.281  -0.323   0.000  0.00  0.00    +0.000 A 
ATOM      2  C   UNL     1       0.996   0.090   0.000  0.00  0.00    +0.000 A 
ATOM      3  C   UNL     1       0.281  -1.147   0.000  0.00  0.00    +0.000 A 
ATOM      4  C   UNL     1       1.710  -0.323   0.000  0.00  0.00    +0.000 A 
ATOM      5 CL   UNL     1       0.996   0.915   0.000  0.00  0.00    +0.000 Cl
ATOM      6  C   UNL     1       0.996  -1.560   0.000  0.00  0.00    +0.000 A 
ATOM      7  C   UNL     1       1.710  -1.147   0.000  0.00  0.00    +0.000 A 
ENDROOT
BRANCH   1   8
ATOM      8  O   UNL     1      -0.433   0.090   0.000  0.00  0.00    +0.000 OA
BRANCH   8   9
ATOM      9  C   UNL     1      -1.148  -0.323   0.000  0.00  0.00    +0.000 C 
BRANCH   9  10
ATOM     10  C   UNL     1      -1.862   0.090   0.000  0.00  0.00    +0.000 A 
ATOM     11  C   UNL     1      -2.576  -0.323   0.000  0.00  0.00    +0.000 A 
ATOM     12  C   UNL     1      -1.862   0.915   0.000  0.00  0.00    +0.000 A 
ATOM     13  C   UNL     1      -3.291   0.090   0.000  0.00  0.00    +0.000 A 
ATOM     14  C   UNL     1      -2.576   1.327   0.000  0.00  0.00    +0.000 A 
ATOM     15  C   UNL     1      -3.291   0.915   0.000  0.00  0.00    +0.000 A 
BRANCH  15  16
ATOM     16  C   UNL     1      -4.005   1.327   0.000  0.00  0.00    +0.000 C 
ATOM     17  C   UNL     1      -4.005   2.152   0.000  0.00  0.00    +0.000 C 
ATOM     18  C   UNL     1      -4.720   0.915   0.000  0.00  0.00    +0.000 C 
ENDBRANCH  15  16
ENDBRANCH   9  10
ENDBRANCH   8   9
ENDBRANCH   1   8
BRANCH   7  19
ATOM     19  C   UNL     1       2.425  -1.560   0.000  0.00  0.00    +0.000 C 
BRANCH  19  20
ATOM     20  C   UNL     1       3.139  -1.147   0.000  0.00  0.00    +0.000 C 
ATOM     21  N   UNL     1       3.854  -1.560   0.000  0.00  0.00    +0.000 NA
ATOM     22  O   UNL     1       3.139  -0.323   0.000  0.00  0.00    +0.000 OA
BRANCH  21  23
ATOM     23  C   UNL     1       4.568  -1.147   0.000  0.00  0.00    +0.000 C 
BRANCH  23  24
ATOM     24  C   UNL     1       5.283  -1.560   0.000  0.00  0.00    +0.000 C 
ATOM     25  N   UNL     1       5.997  -1.147   0.000  0.00  0.00    +0.000 NA
ENDBRANCH  23  24
ENDBRANCH  21  23
ENDBRANCH  19  20
ENDBRANCH   7  19
TORSDOF 8
