REMARK  Name = TF5
REMARK  4 active torsions:
REMARK  status: ('A' for Active; 'I' for Inactive)
REMARK    1  A    between atoms: C_2  and  C_3
REMARK    2  A    between atoms: C_3  and  O_10
REMARK    3  A    between atoms: C_8  and  O_10
REMARK    4  A    between atoms: C_9  and  C_17
REMARK                            x       y       z     vdW  Elec       q    Type
REMARK                         _______ _______ _______ _____ _____    ______ ____
ROOT
ATOM      1  C   UNL     1       3.713  -1.046   0.000  0.00  0.00    +0.000 A 
ATOM      2  C   UNL     1       2.998  -1.458   0.000  0.00  0.00    +0.000 A 
ATOM      3  C   UNL     1       2.284  -1.046   0.000  0.00  0.00    +0.000 A 
ATOM      4  C   UNL     1       2.284  -0.221   0.000  0.00  0.00    +0.000 A 
ATOM      5  C   UNL     1       3.713  -0.221   0.000  0.00  0.00    +0.000 A 
ATOM      6  C   UNL     1       2.998   0.192   0.000  0.00  0.00    +0.000 A 
ENDROOT
BRANCH   4  15
ATOM      7  C   UNL     1       0.855   1.429   0.000  0.00  0.00    +0.000 A 
ATOM      8  C   UNL     1       0.141   0.192   0.000  0.00  0.00    +0.000 A 
ATOM      9  C   UNL     1       0.855  -0.221   0.000  0.00  0.00    +0.000 A 
ATOM     10  F   UNL     1      -0.574  -0.221   0.000  0.00  0.00    +0.000 F 
ATOM     11  F   UNL     1       0.855  -1.046   0.000  0.00  0.00    +0.000 F 
ATOM     12  C   UNL     1       0.141   1.017   0.000  0.00  0.00    +0.000 A 
ATOM     13  F   UNL     1      -0.574   1.429   0.000  0.00  0.00    +0.000 F 
ATOM     14  C   UNL     1       1.569   1.017   0.000  0.00  0.00    +0.000 A 
ATOM     15  C   UNL     1       1.569   0.192   0.000  0.00  0.00    +0.000 A 
ENDBRANCH   4  15
BRANCH   3  16
ATOM     16  O   UNL     1       1.569  -1.458   0.000  0.00  0.00    +0.000 OA
BRANCH  16  17
ATOM     17  C   UNL     1       1.569  -2.283   0.000  0.00  0.00    +0.000 C 
BRANCH  17  18
ATOM     18  C   UNL     1       0.855  -2.696   0.000  0.00  0.00    +0.000 C 
ATOM     19  O   UNL     1       0.855  -3.521   0.000  0.00  0.00    +0.000 OA
ENDBRANCH  17  18
ENDBRANCH  16  17
ENDBRANCH   3  16
TORSDOF 4
