REMARK  Name = TFG
REMARK  4 active torsions:
REMARK  status: ('A' for Active; 'I' for Inactive)
REMARK    1  A    between atoms: C_6  and  C_7
REMARK    2  A    between atoms: C_16  and  C_18
REMARK    3  A    between atoms: C_22  and  C_23
REMARK    4  A    between atoms: C_23  and  C_24
REMARK                            x       y       z     vdW  Elec       q    Type
REMARK                         _______ _______ _______ _____ _____    ______ ____
ROOT
ATOM      1  C   UNL     1       8.040  41.145   0.000  0.00  0.00    +0.000 A 
ATOM      2  C   UNL     1       7.555  41.813   0.000  0.00  0.00    +0.000 A 
ATOM      3  N   UNL     1       8.040  42.480   0.000  0.00  0.00    +0.000 NA
ATOM      4  C   UNL     1       8.824  42.225   0.000  0.00  0.00    +0.000 A 
ATOM      5  C   UNL     1       9.539  42.638   0.000  0.00  0.00    +0.000 C 
ATOM      6  N   UNL     1       8.824  41.400   0.000  0.00  0.00    +0.000 N 
ATOM      7  C   UNL     1       9.539  40.988   0.000  0.00  0.00    +0.000 C 
ATOM      8  C   UNL     1      10.253  41.400   0.000  0.00  0.00    +0.000 C 
ATOM      9  N   UNL     1      10.253  42.225   0.000  0.00  0.00    +0.000 N 
ATOM     10  C   UNL     1      10.968  42.638   0.000  0.00  0.00    +0.000 C 
ATOM     11  O   UNL     1      10.968  43.463   0.000  0.00  0.00    +0.000 OA
ENDROOT
BRANCH   1  17
ATOM     12  C   UNL     1       8.337  39.748   0.000  0.00  0.00    +0.000 A 
ATOM     13  C   UNL     1       8.082  38.963   0.000  0.00  0.00    +0.000 A 
ATOM     14  C   UNL     1       7.275  38.791   0.000  0.00  0.00    +0.000 A 
ATOM     15  C   UNL     1       6.723  39.404   0.000  0.00  0.00    +0.000 A 
ATOM     16  C   UNL     1       6.978  40.189   0.000  0.00  0.00    +0.000 A 
ATOM     17  C   UNL     1       7.785  40.361   0.000  0.00  0.00    +0.000 A 
ENDBRANCH   1  17
BRANCH  10  18
ATOM     18  C   UNL     1      11.682  42.225   0.000  0.00  0.00    +0.000 A 
ATOM     19  S   UNL     1      12.436  42.561   0.000  0.00  0.00    +0.000 S 
ATOM     20  C   UNL     1      11.768  41.405   0.000  0.00  0.00    +0.000 A 
ATOM     21  C   UNL     1      12.575  41.233   0.000  0.00  0.00    +0.000 A 
ATOM     22  C   UNL     1      12.988  41.948   0.000  0.00  0.00    +0.000 A 
BRANCH  22  23
ATOM     23  C   UNL     1      13.808  42.034   0.000  0.00  0.00    +0.000 C 
ATOM     24  O   UNL     1      13.895  41.214   0.000  0.00  0.00    +0.000 OA
ATOM     25  O   UNL     1      13.722  42.854   0.000  0.00  0.00    +0.000 OA
BRANCH  23  26
ATOM     26  C   UNL     1      14.629  42.120   0.000  0.00  0.00    +0.000 C 
ATOM     27  F   UNL     1      15.449  42.206   0.000  0.00  0.00    +0.000 F 
ATOM     28  F   UNL     1      14.715  41.300   0.000  0.00  0.00    +0.000 F 
ATOM     29  F   UNL     1      14.543  42.941   0.000  0.00  0.00    +0.000 F 
ENDBRANCH  23  26
ENDBRANCH  22  23
ENDBRANCH  10  18
TORSDOF 4
