REMARK  Name = TFI
REMARK  9 active torsions:
REMARK  status: ('A' for Active; 'I' for Inactive)
REMARK    1  A    between atoms: C_1  and  C_2
REMARK    2  A    between atoms: C_2  and  C_3
REMARK    3  A    between atoms: C_3  and  C_4
REMARK    4  A    between atoms: C_3  and  N_20
REMARK    5  A    between atoms: C_7  and  C_8
REMARK    6  A    between atoms: C_8  and  N_21
REMARK    7  A    between atoms: C_10  and  N_23
REMARK    8  A    between atoms: C_12  and  C_13
REMARK    9  A    between atoms: N_23  and  S_33
REMARK                            x       y       z     vdW  Elec       q    Type
REMARK                         _______ _______ _______ _____ _____    ______ ____
ROOT
ATOM      1  C   UNL     1       0.359   0.881   0.000  0.00  0.00    +0.000 A 
ATOM      2  C   UNL     1       0.359   1.706   0.000  0.00  0.00    +0.000 A 
ATOM      3  C   UNL     1       1.074   2.119   0.000  0.00  0.00    +0.000 A 
ATOM      4  C   UNL     1       1.788   0.881   0.000  0.00  0.00    +0.000 A 
ATOM      5  N   UNL     1       1.074   0.469   0.000  0.00  0.00    +0.000 N 
ATOM      6  N   UNL     1       1.788   1.706   0.000  0.00  0.00    +0.000 NA
ATOM      7  O   UNL     1      -0.355   0.469   0.000  0.00  0.00    +0.000 OA
ENDROOT
BRANCH   4   8
ATOM      8  C   UNL     1       2.503   0.469   0.000  0.00  0.00    +0.000 A 
ATOM      9  C   UNL     1       3.217   0.881   0.000  0.00  0.00    +0.000 A 
ATOM     10  C   UNL     1       3.932   0.469   0.000  0.00  0.00    +0.000 A 
ATOM     11  C   UNL     1       3.932  -0.356   0.000  0.00  0.00    +0.000 A 
ATOM     12  C   UNL     1       3.217  -0.769   0.000  0.00  0.00    +0.000 A 
ATOM     13  C   UNL     1       2.503  -0.356   0.000  0.00  0.00    +0.000 A 
ATOM     14  N   UNL     1       4.646  -0.769   0.000  0.00  0.00    +0.000 NA
ENDBRANCH   4   8
BRANCH   5  15
ATOM     15  C   UNL     1       1.074  -0.356   0.000  0.00  0.00    +0.000 C 
BRANCH  15  16
ATOM     16  C   UNL     1       0.359  -0.769   0.000  0.00  0.00    +0.000 C 
ATOM     17  N   UNL     1      -0.355  -0.356   0.000  0.00  0.00    +0.000 NA
ATOM     18  O   UNL     1       0.359  -1.594   0.000  0.00  0.00    +0.000 OA
BRANCH  17  19
ATOM     19  C   UNL     1      -1.070  -0.769   0.000  0.00  0.00    +0.000 C 
BRANCH  19  20
ATOM     20  C   UNL     1      -1.070  -1.594   0.000  0.00  0.00    +0.000 C 
ATOM     21  C   UNL     1      -0.355  -2.006   0.000  0.00  0.00    +0.000 C 
ATOM     22  C   UNL     1      -1.784  -2.006   0.000  0.00  0.00    +0.000 C 
ENDBRANCH  19  20
BRANCH  19  23
ATOM     23  C   UNL     1      -1.784  -0.356   0.000  0.00  0.00    +0.000 C 
ATOM     24  O   UNL     1      -1.784   0.469   0.000  0.00  0.00    +0.000 OA
BRANCH  23  25
ATOM     25  C   UNL     1      -2.499  -0.769   0.000  0.00  0.00    +0.000 C 
ATOM     26  F   UNL     1      -3.213  -1.181   0.000  0.00  0.00    +0.000 F 
ATOM     27  F   UNL     1      -2.911  -0.054   0.000  0.00  0.00    +0.000 F 
ATOM     28  F   UNL     1      -2.086  -1.483   0.000  0.00  0.00    +0.000 F 
ENDBRANCH  23  25
ENDBRANCH  19  23
ENDBRANCH  17  19
ENDBRANCH  15  16
ENDBRANCH   5  15
BRANCH   2  29
ATOM     29  N   UNL     1      -0.355   2.119   0.000  0.00  0.00    +0.000 NA
BRANCH  29  33
ATOM     30  C   UNL     1      -1.784   1.294   0.000  0.00  0.00    +0.000 C 
ATOM     31  O   UNL     1      -0.657   0.992   0.000  0.00  0.00    +0.000 OA
ATOM     32  O   UNL     1      -1.482   2.421   0.000  0.00  0.00    +0.000 OA
ATOM     33  S   UNL     1      -1.070   1.706   0.000  0.00  0.00    +0.000 S 
ENDBRANCH  29  33
ENDBRANCH   2  29
TORSDOF 9
