REMARK  Name = TFK
REMARK  10 active torsions:
REMARK  status: ('A' for Active; 'I' for Inactive)
REMARK    1  A    between atoms: C_1  and  C_2
REMARK    2  A    between atoms: C_2  and  C_3
REMARK    3  A    between atoms: C_3  and  C_4
REMARK    4  A    between atoms: C_3  and  N_21
REMARK    5  A    between atoms: C_7  and  C_8
REMARK    6  A    between atoms: C_8  and  N_22
REMARK    7  A    between atoms: C_10  and  N_23
REMARK    8  A    between atoms: C_13  and  C_14
REMARK    9  A    between atoms: N_23  and  S_33
REMARK   10  A    between atoms: N_24  and  S_33
REMARK                            x       y       z     vdW  Elec       q    Type
REMARK                         _______ _______ _______ _____ _____    ______ ____
ROOT
ATOM      1  C   UNL     1       0.266   0.863   0.000  0.00  0.00    +0.000 A 
ATOM      2  C   UNL     1       0.266   1.688   0.000  0.00  0.00    +0.000 A 
ATOM      3  C   UNL     1       0.981   2.101   0.000  0.00  0.00    +0.000 A 
ATOM      4  C   UNL     1       1.695   1.688   0.000  0.00  0.00    +0.000 A 
ATOM      5  C   UNL     1       1.695   0.863   0.000  0.00  0.00    +0.000 A 
ATOM      6  N   UNL     1       0.981   0.451   0.000  0.00  0.00    +0.000 N 
ATOM      7  O   UNL     1      -0.448   0.451   0.000  0.00  0.00    +0.000 OA
ENDROOT
BRANCH   5   8
ATOM      8  C   UNL     1       2.409   0.451   0.000  0.00  0.00    +0.000 A 
ATOM      9  C   UNL     1       3.124   0.863   0.000  0.00  0.00    +0.000 A 
ATOM     10  C   UNL     1       3.838   0.451   0.000  0.00  0.00    +0.000 A 
ATOM     11  C   UNL     1       3.838  -0.374   0.000  0.00  0.00    +0.000 A 
ATOM     12  C   UNL     1       3.124  -0.787   0.000  0.00  0.00    +0.000 A 
ATOM     13  C   UNL     1       2.409  -0.374   0.000  0.00  0.00    +0.000 A 
ENDBRANCH   5   8
BRANCH   2  14
ATOM     14  N   UNL     1      -0.448   2.101   0.000  0.00  0.00    +0.000 NA
BRANCH  14  17
ATOM     15  O   UNL     1      -1.877   1.276   0.000  0.00  0.00    +0.000 OA
ATOM     16  O   UNL     1      -0.750   0.974   0.000  0.00  0.00    +0.000 OA
ATOM     17  S   UNL     1      -1.163   1.688   0.000  0.00  0.00    +0.000 S 
BRANCH  17  19
ATOM     18  C   UNL     1      -2.400   2.403   0.000  0.00  0.00    +0.000 C 
ATOM     19  N   UNL     1      -1.575   2.403   0.000  0.00  0.00    +0.000 NA
ENDBRANCH  17  19
ENDBRANCH  14  17
ENDBRANCH   2  14
BRANCH   6  20
ATOM     20  C   UNL     1       0.981  -0.374   0.000  0.00  0.00    +0.000 C 
BRANCH  20  21
ATOM     21  C   UNL     1       0.266  -0.787   0.000  0.00  0.00    +0.000 C 
ATOM     22  N   UNL     1      -0.448  -0.374   0.000  0.00  0.00    +0.000 NA
ATOM     23  O   UNL     1       0.266  -1.612   0.000  0.00  0.00    +0.000 OA
BRANCH  22  24
ATOM     24  C   UNL     1      -1.163  -0.787   0.000  0.00  0.00    +0.000 C 
BRANCH  24  25
ATOM     25  C   UNL     1      -1.163  -1.612   0.000  0.00  0.00    +0.000 C 
ATOM     26  C   UNL     1      -0.448  -2.024   0.000  0.00  0.00    +0.000 C 
ATOM     27  C   UNL     1      -1.877  -2.024   0.000  0.00  0.00    +0.000 C 
ENDBRANCH  24  25
BRANCH  24  28
ATOM     28  C   UNL     1      -1.877  -0.374   0.000  0.00  0.00    +0.000 C 
ATOM     29  O   UNL     1      -1.877   0.451   0.000  0.00  0.00    +0.000 OA
BRANCH  28  30
ATOM     30  C   UNL     1      -2.592  -0.787   0.000  0.00  0.00    +0.000 C 
ATOM     31  F   UNL     1      -3.306  -1.199   0.000  0.00  0.00    +0.000 F 
ATOM     32  F   UNL     1      -3.004  -0.072   0.000  0.00  0.00    +0.000 F 
ATOM     33  F   UNL     1      -2.179  -1.501   0.000  0.00  0.00    +0.000 F 
ENDBRANCH  28  30
ENDBRANCH  24  28
ENDBRANCH  22  24
ENDBRANCH  20  21
ENDBRANCH   6  20
TORSDOF 10
