REMARK  Name = TFL
REMARK  2 active torsions:
REMARK  status: ('A' for Active; 'I' for Inactive)
REMARK    1  A    between atoms: C_1  and  N_17
REMARK    2  A    between atoms: C_4  and  C_7
REMARK                            x       y       z     vdW  Elec       q    Type
REMARK                         _______ _______ _______ _____ _____    ______ ____
ROOT
ATOM      1  C   UNL     1      -1.252   0.277   0.000  0.00  0.00    +0.000 A 
ATOM      2  N   UNL     1      -0.767  -0.390   0.000  0.00  0.00    +0.000 N 
ATOM      3  C   UNL     1       0.018  -0.135   0.000  0.00  0.00    +0.000 A 
ATOM      4  S   UNL     1      -0.767   0.945   0.000  0.00  0.00    +0.000 S 
ATOM      5  C   UNL     1       0.018   0.690   0.000  0.00  0.00    +0.000 A 
ATOM      6  C   UNL     1       0.732   1.102   0.000  0.00  0.00    +0.000 A 
ATOM      7  C   UNL     1       1.446   0.690   0.000  0.00  0.00    +0.000 A 
ATOM      8  C   UNL     1       1.446  -0.135   0.000  0.00  0.00    +0.000 A 
ATOM      9  C   UNL     1       0.732  -0.548   0.000  0.00  0.00    +0.000 A 
ATOM     10  O   UNL     1       2.161   1.102   0.000  0.00  0.00    +0.000 OA
ATOM     11  C   UNL     1      -1.022  -1.175   0.000  0.00  0.00    +0.000 C 
ENDROOT
BRANCH   1  15
ATOM     12  C   UNL     1      -3.727   0.277   0.000  0.00  0.00    +0.000 A 
ATOM     13  C   UNL     1      -3.315   0.992   0.000  0.00  0.00    +0.000 A 
ATOM     14  C   UNL     1      -2.490   0.992   0.000  0.00  0.00    +0.000 A 
ATOM     15  C   UNL     1      -2.077   0.277   0.000  0.00  0.00    +0.000 A 
ATOM     16  C   UNL     1      -2.490  -0.437   0.000  0.00  0.00    +0.000 A 
ATOM     17  C   UNL     1      -3.315  -0.437   0.000  0.00  0.00    +0.000 A 
BRANCH  12  18
ATOM     18  N   UNL     1      -4.552   0.277   0.000  0.00  0.00    +0.000 N 
ATOM     19  C   UNL     1      -4.965  -0.437   0.000  0.00  0.00    +0.000 C 
ATOM     20  C   UNL     1      -4.965   0.992   0.000  0.00  0.00    +0.000 C 
ENDBRANCH  12  18
ENDBRANCH   1  15
TORSDOF 2
