REMARK  Name = TFM
REMARK  4 active torsions:
REMARK  status: ('A' for Active; 'I' for Inactive)
REMARK    1  A    between atoms: C_2  and  S_3
REMARK    2  A    between atoms: S_3  and  C_11
REMARK    3  A    between atoms: N_4  and  C_5
REMARK    4  A    between atoms: C_8  and  C_13
REMARK                            x       y       z     vdW  Elec       q    Type
REMARK                         _______ _______ _______ _____ _____    ______ ____
ROOT
ATOM      1  C   UNL     1       0.147  -0.722   0.000  0.00  0.00    +0.000 A 
ATOM      2  C   UNL     1       0.147  -1.547   0.000  0.00  0.00    +0.000 A 
ATOM      3  C   UNL     1      -0.568  -1.959   0.000  0.00  0.00    +0.000 A 
ATOM      4  C   UNL     1      -1.282  -1.547   0.000  0.00  0.00    +0.000 A 
ATOM      5  C   UNL     1      -1.282  -0.722   0.000  0.00  0.00    +0.000 A 
ATOM      6  C   UNL     1      -0.568  -0.309   0.000  0.00  0.00    +0.000 A 
ENDROOT
BRANCH   4   7
ATOM      7  C   UNL     1      -1.997  -1.959   0.000  0.00  0.00    +0.000 C 
ATOM      8  F   UNL     1      -2.711  -2.372   0.000  0.00  0.00    +0.000 F 
ATOM      9  F   UNL     1      -2.409  -1.245   0.000  0.00  0.00    +0.000 F 
ATOM     10  F   UNL     1      -1.584  -2.674   0.000  0.00  0.00    +0.000 F 
ENDBRANCH   4   7
BRANCH   1  13
ATOM     11  N   UNL     1       0.147   0.928   0.000  0.00  0.00    +0.000 NA
ATOM     12  C   UNL     1       0.861   0.516   0.000  0.00  0.00    +0.000 C 
ATOM     13  N   UNL     1       0.861  -0.309   0.000  0.00  0.00    +0.000 NA
BRANCH  12  14
ATOM     14  S   UNL     1       1.576   0.928   0.000  0.00  0.00    +0.000 S 
BRANCH  14  15
ATOM     15  C   UNL     1       1.576   1.753   0.000  0.00  0.00    +0.000 C 
ATOM     16  C   UNL     1       2.290   2.166   0.000  0.00  0.00    +0.000 C 
ENDBRANCH  14  15
ENDBRANCH  12  14
ENDBRANCH   1  13
TORSDOF 4
