REMARK  Name = TFQ
REMARK  5 active torsions:
REMARK  status: ('A' for Active; 'I' for Inactive)
REMARK    1  A    between atoms: C_2  and  C_5
REMARK    2  A    between atoms: C_5  and  C_6
REMARK    3  A    between atoms: C_11  and  C_12
REMARK    4  A    between atoms: C_12  and  CA_13
REMARK    5  A    between atoms: CA_13  and  C_15
REMARK                            x       y       z     vdW  Elec       q    Type
REMARK                         _______ _______ _______ _____ _____    ______ ____
ROOT
ATOM      1  C   UNL     1       0.712   0.985   0.000  0.00  0.00    +0.000 A 
ATOM      2  C   UNL     1      -0.002   1.397   0.000  0.00  0.00    +0.000 A 
ATOM      3  C   UNL     1      -0.717   0.985   0.000  0.00  0.00    +0.000 A 
ATOM      4  C   UNL     1       0.712   0.160   0.000  0.00  0.00    +0.000 A 
ATOM      5  C   UNL     1      -0.002  -0.253   0.000  0.00  0.00    +0.000 A 
ATOM      6  C   UNL     1      -0.717   0.160   0.000  0.00  0.00    +0.000 A 
ENDROOT
BRANCH   1   7
ATOM      7  C   UNL     1       1.427   1.397   0.000  0.00  0.00    +0.000 C 
BRANCH   7   9
ATOM      8  F   UNL     1       2.856   0.572   0.000  0.00  0.00    +0.000 F 
ATOM      9  C   UNL     1       2.141   0.985   0.000  0.00  0.00    +0.000 C 
ATOM     10  F   UNL     1       1.729   0.270   0.000  0.00  0.00    +0.000 F 
ATOM     11  F   UNL     1       2.554   1.699   0.000  0.00  0.00    +0.000 F 
ENDBRANCH   7   9
ENDBRANCH   1   7
BRANCH   6  12
ATOM     12  C   UNL     1      -1.431  -0.253   0.000  0.00  0.00    +0.000 C 
BRANCH  12  13
ATOM     13  CA  UNL     1      -1.431  -1.078   0.000  0.00  0.00    +0.000 C 
ATOM     14  N   UNL     1      -0.717  -1.490   0.000  0.00  0.00    +0.000 NA
BRANCH  13  15
ATOM     15  C   UNL     1      -2.146  -1.490   0.000  0.00  0.00    +0.000 C 
ATOM     16  O   UNL     1      -2.146  -2.315   0.000  0.00  0.00    +0.000 OA
ATOM     17  OXT UNL     1      -2.860  -1.078   0.000  0.00  0.00    +0.000 OA
ENDBRANCH  13  15
ENDBRANCH  12  13
ENDBRANCH   6  12
TORSDOF 5
