REMARK  Name = TG(22:1(13Z)/22:1(13Z)/22:1(13Z))
REMARK  65 active torsions:
REMARK  status: ('A' for Active; 'I' for Inactive)
REMARK    1  A    between atoms: C_1  and  C_2
REMARK    2  A    between atoms: C_1  and  O_4
REMARK    3  A    between atoms: C_2  and  C_3
REMARK    4  A    between atoms: C_2  and  O_6
REMARK    5  A    between atoms: C_3  and  O_5
REMARK    6  A    between atoms: O_4  and  C_8
REMARK    7  A    between atoms: O_5  and  C_54
REMARK    8  A    between atoms: O_6  and  C_31
REMARK    9  A    between atoms: C_8  and  C_10
REMARK   10  A    between atoms: C_10  and  C_11
REMARK   11  A    between atoms: C_11  and  C_12
REMARK   12  A    between atoms: C_12  and  C_13
REMARK   13  A    between atoms: C_13  and  C_14
REMARK   14  A    between atoms: C_14  and  C_15
REMARK   15  A    between atoms: C_15  and  C_16
REMARK   16  A    between atoms: C_16  and  C_17
REMARK   17  A    between atoms: C_17  and  C_18
REMARK   18  A    between atoms: C_18  and  C_19
REMARK   19  A    between atoms: C_19  and  C_20
REMARK   20  A    between atoms: C_20  and  C_21
REMARK   21  A    between atoms: C_22  and  C_23
REMARK   22  A    between atoms: C_23  and  C_24
REMARK   23  A    between atoms: C_24  and  C_25
REMARK   24  A    between atoms: C_25  and  C_26
REMARK   25  A    between atoms: C_26  and  C_27
REMARK   26  A    between atoms: C_27  and  C_28
REMARK   27  A    between atoms: C_28  and  C_29
REMARK   28  A    between atoms: C_31  and  C_33
REMARK   29  A    between atoms: C_33  and  C_34
REMARK   30  A    between atoms: C_34  and  C_35
REMARK   31  A    between atoms: C_35  and  C_36
REMARK   32  A    between atoms: C_36  and  C_37
REMARK   33  A    between atoms: C_37  and  C_38
REMARK   34  A    between atoms: C_38  and  C_39
REMARK   35  A    between atoms: C_39  and  C_40
REMARK   36  A    between atoms: C_40  and  C_41
REMARK   37  A    between atoms: C_41  and  C_42
REMARK   38  A    between atoms: C_42  and  C_43
REMARK   39  A    between atoms: C_43  and  C_44
REMARK   40  A    between atoms: C_45  and  C_46
REMARK   41  A    between atoms: C_46  and  C_47
REMARK   42  A    between atoms: C_47  and  C_48
REMARK   43  A    between atoms: C_48  and  C_49
REMARK   44  A    between atoms: C_49  and  C_50
REMARK   45  A    between atoms: C_50  and  C_51
REMARK   46  A    between atoms: C_51  and  C_52
REMARK   47  A    between atoms: C_54  and  C_56
REMARK   48  A    between atoms: C_56  and  C_57
REMARK   49  A    between atoms: C_57  and  C_58
REMARK   50  A    between atoms: C_58  and  C_59
REMARK   51  A    between atoms: C_59  and  C_60
REMARK   52  A    between atoms: C_60  and  C_61
REMARK   53  A    between atoms: C_61  and  C_62
REMARK   54  A    between atoms: C_62  and  C_63
REMARK   55  A    between atoms: C_63  and  C_64
REMARK   56  A    between atoms: C_64  and  C_65
REMARK   57  A    between atoms: C_65  and  C_66
REMARK   58  A    between atoms: C_66  and  C_67
REMARK   59  A    between atoms: C_68  and  C_69
REMARK   60  A    between atoms: C_69  and  C_70
REMARK   61  A    between atoms: C_70  and  C_71
REMARK   62  A    between atoms: C_71  and  C_72
REMARK   63  A    between atoms: C_72  and  C_73
REMARK   64  A    between atoms: C_73  and  C_74
REMARK   65  A    between atoms: C_74  and  C_75
REMARK                            x       y       z     vdW  Elec       q    Type
REMARK                         _______ _______ _______ _____ _____    ______ ____
ROOT
ATOM      1  C   UNL     1      23.183  -7.035   0.000  0.00  0.00    +0.000 C 
ENDROOT
BRANCH   1   2
ATOM      2  O   UNL     1      22.433  -8.145   0.000  0.00  0.00    +0.000 OA
BRANCH   2   3
ATOM      3  C   UNL     1      21.718  -8.557   0.000  0.00  0.00    +0.000 C 
ATOM      4  O   UNL     1      21.718  -9.329   0.000  0.00  0.00    +0.000 OA
BRANCH   3   5
ATOM      5  C   UNL     1      21.004  -8.144   0.000  0.00  0.00    +0.000 C 
BRANCH   5   6
ATOM      6  C   UNL     1      20.290  -8.557   0.000  0.00  0.00    +0.000 C 
BRANCH   6   7
ATOM      7  C   UNL     1      19.576  -8.144   0.000  0.00  0.00    +0.000 C 
BRANCH   7   8
ATOM      8  C   UNL     1      18.861  -8.557   0.000  0.00  0.00    +0.000 C 
BRANCH   8   9
ATOM      9  C   UNL     1      18.147  -8.144   0.000  0.00  0.00    +0.000 C 
BRANCH   9  10
ATOM     10  C   UNL     1      17.433  -8.557   0.000  0.00  0.00    +0.000 C 
BRANCH  10  11
ATOM     11  C   UNL     1      16.719  -8.144   0.000  0.00  0.00    +0.000 C 
BRANCH  11  12
ATOM     12  C   UNL     1      16.005  -8.557   0.000  0.00  0.00    +0.000 C 
BRANCH  12  13
ATOM     13  C   UNL     1      15.291  -8.144   0.000  0.00  0.00    +0.000 C 
BRANCH  13  14
ATOM     14  C   UNL     1      14.577  -8.557   0.000  0.00  0.00    +0.000 C 
BRANCH  14  15
ATOM     15  C   UNL     1      13.863  -8.144   0.000  0.00  0.00    +0.000 C 
BRANCH  15  16
ATOM     16  C   UNL     1      13.149  -8.557   0.000  0.00  0.00    +0.000 C 
ATOM     17  C   UNL     1      12.323  -8.557   0.000  0.00  0.00    +0.000 C 
BRANCH  17  18
ATOM     18  C   UNL     1      11.609  -8.144   0.000  0.00  0.00    +0.000 C 
BRANCH  18  19
ATOM     19  C   UNL     1      10.895  -8.557   0.000  0.00  0.00    +0.000 C 
BRANCH  19  20
ATOM     20  C   UNL     1      10.181  -8.144   0.000  0.00  0.00    +0.000 C 
BRANCH  20  21
ATOM     21  C   UNL     1       9.467  -8.557   0.000  0.00  0.00    +0.000 C 
BRANCH  21  22
ATOM     22  C   UNL     1       8.753  -8.144   0.000  0.00  0.00    +0.000 C 
BRANCH  22  23
ATOM     23  C   UNL     1       8.039  -8.557   0.000  0.00  0.00    +0.000 C 
BRANCH  23  24
ATOM     24  C   UNL     1       7.325  -8.144   0.000  0.00  0.00    +0.000 C 
ATOM     25  C   UNL     1       6.611  -8.557   0.000  0.00  0.00    +0.000 C 
ENDBRANCH  23  24
ENDBRANCH  22  23
ENDBRANCH  21  22
ENDBRANCH  20  21
ENDBRANCH  19  20
ENDBRANCH  18  19
ENDBRANCH  17  18
ENDBRANCH  15  16
ENDBRANCH  14  15
ENDBRANCH  13  14
ENDBRANCH  12  13
ENDBRANCH  11  12
ENDBRANCH  10  11
ENDBRANCH   9  10
ENDBRANCH   8   9
ENDBRANCH   7   8
ENDBRANCH   6   7
ENDBRANCH   5   6
ENDBRANCH   3   5
ENDBRANCH   2   3
ENDBRANCH   1   2
BRANCH   1  26
ATOM     26  C   UNL     1      24.144  -6.480   0.000  0.00  0.00    +0.000 C 
BRANCH  26  27
ATOM     27  O   UNL     1      24.144  -5.370   0.000  0.00  0.00    +0.000 OA
BRANCH  27  28
ATOM     28  C   UNL     1      23.429  -4.958   0.000  0.00  0.00    +0.000 C 
ATOM     29  O   UNL     1      23.429  -4.186   0.000  0.00  0.00    +0.000 OA
BRANCH  28  30
ATOM     30  C   UNL     1      22.715  -5.371   0.000  0.00  0.00    +0.000 C 
BRANCH  30  31
ATOM     31  C   UNL     1      22.001  -4.958   0.000  0.00  0.00    +0.000 C 
BRANCH  31  32
ATOM     32  C   UNL     1      21.287  -5.371   0.000  0.00  0.00    +0.000 C 
BRANCH  32  33
ATOM     33  C   UNL     1      20.573  -4.958   0.000  0.00  0.00    +0.000 C 
BRANCH  33  34
ATOM     34  C   UNL     1      19.859  -5.371   0.000  0.00  0.00    +0.000 C 
BRANCH  34  35
ATOM     35  C   UNL     1      19.145  -4.958   0.000  0.00  0.00    +0.000 C 
BRANCH  35  36
ATOM     36  C   UNL     1      18.430  -5.371   0.000  0.00  0.00    +0.000 C 
BRANCH  36  37
ATOM     37  C   UNL     1      17.716  -4.958   0.000  0.00  0.00    +0.000 C 
BRANCH  37  38
ATOM     38  C   UNL     1      17.002  -5.371   0.000  0.00  0.00    +0.000 C 
BRANCH  38  39
ATOM     39  C   UNL     1      16.288  -4.958   0.000  0.00  0.00    +0.000 C 
BRANCH  39  40
ATOM     40  C   UNL     1      15.574  -5.371   0.000  0.00  0.00    +0.000 C 
BRANCH  40  41
ATOM     41  C   UNL     1      14.860  -4.958   0.000  0.00  0.00    +0.000 C 
ATOM     42  C   UNL     1      14.035  -4.958   0.000  0.00  0.00    +0.000 C 
BRANCH  42  43
ATOM     43  C   UNL     1      13.321  -5.371   0.000  0.00  0.00    +0.000 C 
BRANCH  43  44
ATOM     44  C   UNL     1      12.607  -4.958   0.000  0.00  0.00    +0.000 C 
BRANCH  44  45
ATOM     45  C   UNL     1      11.892  -5.371   0.000  0.00  0.00    +0.000 C 
BRANCH  45  46
ATOM     46  C   UNL     1      11.178  -4.958   0.000  0.00  0.00    +0.000 C 
BRANCH  46  47
ATOM     47  C   UNL     1      10.464  -5.371   0.000  0.00  0.00    +0.000 C 
BRANCH  47  48
ATOM     48  C   UNL     1       9.750  -4.958   0.000  0.00  0.00    +0.000 C 
BRANCH  48  49
ATOM     49  C   UNL     1       9.036  -5.371   0.000  0.00  0.00    +0.000 C 
ATOM     50  C   UNL     1       8.322  -4.958   0.000  0.00  0.00    +0.000 C 
ENDBRANCH  48  49
ENDBRANCH  47  48
ENDBRANCH  46  47
ENDBRANCH  45  46
ENDBRANCH  44  45
ENDBRANCH  43  44
ENDBRANCH  42  43
ENDBRANCH  40  41
ENDBRANCH  39  40
ENDBRANCH  38  39
ENDBRANCH  37  38
ENDBRANCH  36  37
ENDBRANCH  35  36
ENDBRANCH  34  35
ENDBRANCH  33  34
ENDBRANCH  32  33
ENDBRANCH  31  32
ENDBRANCH  30  31
ENDBRANCH  28  30
ENDBRANCH  27  28
ENDBRANCH  26  27
ENDBRANCH   1  26
BRANCH   1  51
ATOM     51  C   UNL     1      22.221  -6.480   0.000  0.00  0.00    +0.000 C 
BRANCH  51  52
ATOM     52  O   UNL     1      21.260  -7.035   0.000  0.00  0.00    +0.000 OA
BRANCH  52  53
ATOM     53  C   UNL     1      20.546  -6.622   0.000  0.00  0.00    +0.000 C 
ATOM     54  O   UNL     1      20.546  -5.851   0.000  0.00  0.00    +0.000 OA
BRANCH  53  55
ATOM     55  C   UNL     1      19.832  -7.036   0.000  0.00  0.00    +0.000 C 
BRANCH  55  56
ATOM     56  C   UNL     1      19.117  -6.622   0.000  0.00  0.00    +0.000 C 
BRANCH  56  57
ATOM     57  C   UNL     1      18.403  -7.036   0.000  0.00  0.00    +0.000 C 
BRANCH  57  58
ATOM     58  C   UNL     1      17.689  -6.622   0.000  0.00  0.00    +0.000 C 
BRANCH  58  59
ATOM     59  C   UNL     1      16.975  -7.036   0.000  0.00  0.00    +0.000 C 
BRANCH  59  60
ATOM     60  C   UNL     1      16.261  -6.622   0.000  0.00  0.00    +0.000 C 
BRANCH  60  61
ATOM     61  C   UNL     1      15.547  -7.036   0.000  0.00  0.00    +0.000 C 
BRANCH  61  62
ATOM     62  C   UNL     1      14.833  -6.622   0.000  0.00  0.00    +0.000 C 
BRANCH  62  63
ATOM     63  C   UNL     1      14.119  -7.036   0.000  0.00  0.00    +0.000 C 
BRANCH  63  64
ATOM     64  C   UNL     1      13.405  -6.622   0.000  0.00  0.00    +0.000 C 
BRANCH  64  65
ATOM     65  C   UNL     1      12.690  -7.036   0.000  0.00  0.00    +0.000 C 
BRANCH  65  66
ATOM     66  C   UNL     1      11.976  -6.622   0.000  0.00  0.00    +0.000 C 
ATOM     67  C   UNL     1      11.151  -6.622   0.000  0.00  0.00    +0.000 C 
BRANCH  67  68
ATOM     68  C   UNL     1      10.437  -7.036   0.000  0.00  0.00    +0.000 C 
BRANCH  68  69
ATOM     69  C   UNL     1       9.723  -6.622   0.000  0.00  0.00    +0.000 C 
BRANCH  69  70
ATOM     70  C   UNL     1       9.009  -7.036   0.000  0.00  0.00    +0.000 C 
BRANCH  70  71
ATOM     71  C   UNL     1       8.295  -6.622   0.000  0.00  0.00    +0.000 C 
BRANCH  71  72
ATOM     72  C   UNL     1       7.581  -7.036   0.000  0.00  0.00    +0.000 C 
BRANCH  72  73
ATOM     73  C   UNL     1       6.867  -6.622   0.000  0.00  0.00    +0.000 C 
BRANCH  73  74
ATOM     74  C   UNL     1       6.152  -7.036   0.000  0.00  0.00    +0.000 C 
ATOM     75  C   UNL     1       5.438  -6.622   0.000  0.00  0.00    +0.000 C 
ENDBRANCH  73  74
ENDBRANCH  72  73
ENDBRANCH  71  72
ENDBRANCH  70  71
ENDBRANCH  69  70
ENDBRANCH  68  69
ENDBRANCH  67  68
ENDBRANCH  65  66
ENDBRANCH  64  65
ENDBRANCH  63  64
ENDBRANCH  62  63
ENDBRANCH  61  62
ENDBRANCH  60  61
ENDBRANCH  59  60
ENDBRANCH  58  59
ENDBRANCH  57  58
ENDBRANCH  56  57
ENDBRANCH  55  56
ENDBRANCH  53  55
ENDBRANCH  52  53
ENDBRANCH  51  52
ENDBRANCH   1  51
TORSDOF 65
