REMARK  Name = TGN
REMARK  5 active torsions:
REMARK  status: ('A' for Active; 'I' for Inactive)
REMARK    1  A    between atoms: C_1  and  C_20
REMARK    2  A    between atoms: C_9  and  O_10
REMARK    3  A    between atoms: O_10  and  P_11
REMARK    4  A    between atoms: P_11  and  C_14
REMARK    5  A    between atoms: C_20  and  O_22
REMARK                            x       y       z     vdW  Elec       q    Type
REMARK                         _______ _______ _______ _____ _____    ______ ____
ROOT
ATOM      1  C   UNL     1       0.351   0.989   0.000  0.00  0.00    +0.000 C 
ATOM      2  C   UNL     1      -0.578   0.973   0.000  0.00  0.00    +0.000 C 
ATOM      3  N   UNL     1      -1.138   1.413   0.000  0.00  0.00    +0.000 NA
ATOM      4  C   UNL     1      -1.561   2.122   0.000  0.00  0.00    +0.000 C 
ATOM      5  C   UNL     1      -0.898   0.265   0.000  0.00  0.00    +0.000 C 
ATOM      6  C   UNL     1      -1.518  -0.112   0.000  0.00  0.00    +0.000 C 
ATOM      7  C   UNL     1      -0.999   0.600   0.000  0.00  0.00    +0.000 C 
ATOM      8  C   UNL     1      -0.027   0.600   0.000  0.00  0.00    +0.000 C 
ATOM      9  C   UNL     1       0.489   0.171   0.000  0.00  0.00    +0.000 C 
ENDROOT
BRANCH   1  10
ATOM     10  C   UNL     1       0.878   1.623   0.000  0.00  0.00    +0.000 C 
ATOM     11  O   UNL     1       1.692   1.484   0.000  0.00  0.00    +0.000 OA
BRANCH  10  12
ATOM     12  O   UNL     1       0.592   2.397   0.000  0.00  0.00    +0.000 OA
ATOM     13  C   UNL     1       1.120   3.031   0.000  0.00  0.00    +0.000 C 
ENDBRANCH  10  12
ENDBRANCH   1  10
BRANCH   9  14
ATOM     14  O   UNL     1       0.901  -0.544   0.000  0.00  0.00    +0.000 OA
BRANCH  14  15
ATOM     15  P   UNL     1       0.488  -1.258   0.000  0.00  0.00    +0.000 P 
ATOM     16  O   UNL     1      -0.226  -0.845   0.000  0.00  0.00    +0.000 OA
ATOM     17  O   UNL     1       1.202  -1.671   0.000  0.00  0.00    +0.000 OA
BRANCH  15  18
ATOM     18  C   UNL     1       0.075  -1.972   0.000  0.00  0.00    +0.000 A 
ATOM     19  C   UNL     1       0.487  -2.687   0.000  0.00  0.00    +0.000 A 
ATOM     20  C   UNL     1      -0.750  -1.971   0.000  0.00  0.00    +0.000 A 
ATOM     21  C   UNL     1       0.073  -3.401   0.000  0.00  0.00    +0.000 A 
ATOM     22  C   UNL     1      -0.752  -3.400   0.000  0.00  0.00    +0.000 A 
ATOM     23  C   UNL     1      -1.163  -2.685   0.000  0.00  0.00    +0.000 A 
ENDBRANCH  15  18
ENDBRANCH  14  15
ENDBRANCH   9  14
TORSDOF 5
