REMARK  Name = TH1
REMARK  2 active torsions:
REMARK  status: ('A' for Active; 'I' for Inactive)
REMARK    1  A    between atoms: C_1  and  C_12
REMARK    2  A    between atoms: C_8  and  C_10
REMARK                            x       y       z     vdW  Elec       q    Type
REMARK                         _______ _______ _______ _____ _____    ______ ____
ROOT
ATOM      1  C   UNL     1      -1.388  -0.872   0.000  0.00  0.00    +0.000 C 
ATOM      2  C   UNL     1      -1.800  -1.586   0.000  0.00  0.00    +0.000 C 
ATOM      3  O   UNL     1      -1.388  -2.301   0.000  0.00  0.00    +0.000 OA
ATOM      4  C   UNL     1      -2.625  -1.586   0.000  0.00  0.00    +0.000 C 
ATOM      5  O   UNL     1      -3.038  -2.301   0.000  0.00  0.00    +0.000 OA
ATOM      6  C   UNL     1      -3.038  -0.872   0.000  0.00  0.00    +0.000 C 
ATOM      7  O   UNL     1      -3.863  -0.872   0.000  0.00  0.00    +0.000 OA
ATOM      8  C   UNL     1      -2.625  -0.157   0.000  0.00  0.00    +0.000 C 
ATOM      9  O   UNL     1      -1.800  -0.157   0.000  0.00  0.00    +0.000 OA
ENDROOT
BRANCH   1  10
ATOM     10  C   UNL     1      -0.563  -0.872   0.000  0.00  0.00    +0.000 A 
ATOM     11  N   UNL     1      -0.078  -0.204   0.000  0.00  0.00    +0.000 NA
ATOM     12  C   UNL     1       0.707  -0.459   0.000  0.00  0.00    +0.000 A 
ATOM     13  C   UNL     1       1.421  -0.047   0.000  0.00  0.00    +0.000 A 
ATOM     14  C   UNL     1       2.136  -0.459   0.000  0.00  0.00    +0.000 A 
ATOM     15  C   UNL     1       2.136  -1.284   0.000  0.00  0.00    +0.000 A 
ATOM     16  C   UNL     1       1.421  -1.697   0.000  0.00  0.00    +0.000 A 
ATOM     17  C   UNL     1       0.707  -1.284   0.000  0.00  0.00    +0.000 A 
ATOM     18  S   UNL     1      -0.078  -1.539   0.000  0.00  0.00    +0.000 S 
ATOM     19  C   UNL     1       2.850  -0.047   0.000  0.00  0.00    +0.000 C 
ENDBRANCH   1  10
BRANCH   8  20
ATOM     20  C   UNL     1      -3.038   0.557   0.000  0.00  0.00    +0.000 C 
ATOM     21  O   UNL     1      -2.625   1.272   0.000  0.00  0.00    +0.000 OA
ENDBRANCH   8  20
TORSDOF 2
