REMARK  Name = TH2
REMARK  5 active torsions:
REMARK  status: ('A' for Active; 'I' for Inactive)
REMARK    1  A    between atoms: C_18  and  O_19
REMARK    2  A    between atoms: O_19  and  C_21
REMARK    3  A    between atoms: C_21  and  C_24
REMARK    4  A    between atoms: C_23  and  C_24
REMARK    5  A    between atoms: C_23  and  C_25
REMARK                            x       y       z     vdW  Elec       q    Type
REMARK                         _______ _______ _______ _____ _____    ______ ____
ROOT
ATOM      1  C   UNL     1      -0.143   2.154   0.000  0.00  0.00    +0.000 C 
ATOM      2  C   UNL     1      -0.398   2.938   0.000  0.00  0.00    +0.000 C 
ATOM      3  C   UNL     1      -1.205   3.110   0.000  0.00  0.00    +0.000 C 
ATOM      4  O   UNL     1      -1.460   3.894   0.000  0.00  0.00    +0.000 OA
ATOM      5  C   UNL     1      -1.757   2.497   0.000  0.00  0.00    +0.000 C 
ATOM      6  C   UNL     1      -1.502   1.712   0.000  0.00  0.00    +0.000 C 
ATOM      7  C   UNL     1      -2.054   1.099   0.000  0.00  0.00    +0.000 C 
ATOM      8  C   UNL     1      -1.799   0.314   0.000  0.00  0.00    +0.000 C 
ATOM      9  C   UNL     1      -0.992   0.143   0.000  0.00  0.00    +0.000 C 
ATOM     10  C   UNL     1      -0.440   0.756   0.000  0.00  0.00    +0.000 C 
ATOM     11  C   UNL     1      -0.695   1.540   0.000  0.00  0.00    +0.000 C 
ATOM     12  C   UNL     1       0.367   0.584   0.000  0.00  0.00    +0.000 C 
ATOM     13  C   UNL     1       0.622  -0.200   0.000  0.00  0.00    +0.000 C 
ATOM     14  C   UNL     1       0.070  -0.813   0.000  0.00  0.00    +0.000 C 
ATOM     15  C   UNL     1      -0.737  -0.642   0.000  0.00  0.00    +0.000 C 
ATOM     16  C   UNL     1      -1.150  -1.356   0.000  0.00  0.00    +0.000 C 
ATOM     17  C   UNL     1      -0.598  -1.970   0.000  0.00  0.00    +0.000 C 
ATOM     18  C   UNL     1       0.156  -1.634   0.000  0.00  0.00    +0.000 C 
ATOM     19  C   UNL     1       0.854  -1.068   0.000  0.00  0.00    +0.000 C 
ATOM     20  C   UNL     1       0.112   1.369   0.000  0.00  0.00    +0.000 C 
ENDROOT
BRANCH  18  21
ATOM     21  O   UNL     1       0.870  -2.046   0.000  0.00  0.00    +0.000 OA
BRANCH  21  22
ATOM     22  C   UNL     1       1.585  -1.634   0.000  0.00  0.00    +0.000 C 
ATOM     23  O   UNL     1       1.585  -0.809   0.000  0.00  0.00    +0.000 OA
BRANCH  22  24
ATOM     24  C   UNL     1       2.299  -2.046   0.000  0.00  0.00    +0.000 C 
BRANCH  24  25
ATOM     25  C   UNL     1       3.014  -1.634   0.000  0.00  0.00    +0.000 C 
BRANCH  25  26
ATOM     26  C   UNL     1       3.728  -2.046   0.000  0.00  0.00    +0.000 C 
ATOM     27  O   UNL     1       4.443  -1.634   0.000  0.00  0.00    +0.000 OA
ATOM     28  O   UNL     1       3.728  -2.871   0.000  0.00  0.00    +0.000 OA
ENDBRANCH  25  26
ENDBRANCH  24  25
ENDBRANCH  22  24
ENDBRANCH  21  22
ENDBRANCH  18  21
TORSDOF 5
