REMARK  Name = TH8
REMARK  6 active torsions:
REMARK  status: ('A' for Active; 'I' for Inactive)
REMARK    1  A    between atoms: C_1  and  C_4
REMARK    2  A    between atoms: N_6  and  CA_7
REMARK    3  A    between atoms: CA_7  and  C_8
REMARK    4  A    between atoms: CA_7  and  C_10
REMARK    5  A    between atoms: C_10  and  C_12
REMARK    6  A    between atoms: C_15  and  S_21
REMARK                            x       y       z     vdW  Elec       q    Type
REMARK                         _______ _______ _______ _____ _____    ______ ____
ROOT
ATOM      1  C   UNL     1      -4.362  21.250   0.000  0.00  0.00    +0.000 C 
ATOM      2  O   UNL     1      -4.362  22.075   0.000  0.00  0.00    +0.000 OA
ENDROOT
BRANCH   1   3
ATOM      3  C   UNL     1      -3.647  20.838   0.000  0.00  0.00    +0.000 A 
ATOM      4  C   UNL     1      -2.933  21.250   0.000  0.00  0.00    +0.000 A 
ATOM      5  C   UNL     1      -2.218  20.838   0.000  0.00  0.00    +0.000 A 
ATOM      6  C   UNL     1      -2.218  20.013   0.000  0.00  0.00    +0.000 A 
ATOM      7  C   UNL     1      -2.933  19.600   0.000  0.00  0.00    +0.000 A 
ATOM      8  C   UNL     1      -3.647  20.013   0.000  0.00  0.00    +0.000 A 
BRANCH   6  12
ATOM      9  O   UNL     1      -0.789  19.188   0.000  0.00  0.00    +0.000 OA
ATOM     10  O   UNL     1      -1.916  18.886   0.000  0.00  0.00    +0.000 OA
ATOM     11  C   UNL     1      -1.091  20.315   0.000  0.00  0.00    +0.000 C 
ATOM     12  S   UNL     1      -1.504  19.600   0.000  0.00  0.00    +0.000 S 
ENDBRANCH   6  12
ENDBRANCH   1   3
BRANCH   1  13
ATOM     13  CA  UNL     1      -5.076  20.838   0.000  0.00  0.00    +0.000 C 
BRANCH  13  16
ATOM     14  C   UNL     1      -6.505  20.838   0.000  0.00  0.00    +0.000 C 
ATOM     15  O   UNL     1      -6.505  20.013   0.000  0.00  0.00    +0.000 OA
ATOM     16  N   UNL     1      -5.790  21.250   0.000  0.00  0.00    +0.000 NA
BRANCH  14  17
ATOM     17  C   UNL     1      -7.219  21.250   0.000  0.00  0.00    +0.000 C 
ATOM     18 CL   UNL     1      -7.934  20.838   0.000  0.00  0.00    +0.000 Cl
ATOM     19 CL   UNL     1      -7.219  22.075   0.000  0.00  0.00    +0.000 Cl
ENDBRANCH  14  17
ENDBRANCH  13  16
BRANCH  13  20
ATOM     20  C   UNL     1      -5.076  20.013   0.000  0.00  0.00    +0.000 C 
ATOM     21  O   UNL     1      -4.362  19.600   0.000  0.00  0.00    +0.000 OA
ENDBRANCH  13  20
ENDBRANCH   1  13
TORSDOF 6
