REMARK  Name = THK
REMARK  6 active torsions:
REMARK  status: ('A' for Active; 'I' for Inactive)
REMARK    1  A    between atoms: N_1  and  C_8
REMARK    2  A    between atoms: C_4  and  C_19
REMARK    3  A    between atoms: C_8  and  C_9
REMARK    4  A    between atoms: C_9  and  C_10
REMARK    5  A    between atoms: C_10  and  C_11
REMARK    6  A    between atoms: C_11  and  C_12
REMARK                            x       y       z     vdW  Elec       q    Type
REMARK                         _______ _______ _______ _____ _____    ______ ____
ROOT
ATOM      1  C   UNL     1      -0.286   0.804   0.000  0.00  0.00    +0.000 C 
ENDROOT
BRANCH   1   2
ATOM      2  N   UNL     1       0.521   0.632   0.000  0.00  0.00    +0.000 NA
ATOM      3  C   UNL     1       1.073   1.245   0.000  0.00  0.00    +0.000 C 
ATOM      4  C   UNL     1       1.880   1.074   0.000  0.00  0.00    +0.000 C 
ATOM      5  C   UNL     1       2.135   0.289   0.000  0.00  0.00    +0.000 C 
ATOM      6  O   UNL     1       2.863   0.676   0.000  0.00  0.00    +0.000 OA
ATOM      7  C   UNL     1       1.583  -0.324   0.000  0.00  0.00    +0.000 C 
ATOM      8  C   UNL     1       0.776  -0.152   0.000  0.00  0.00    +0.000 C 
BRANCH   5   9
ATOM      9  C   UNL     1       2.643  -0.361   0.000  0.00  0.00    +0.000 A 
ATOM     10  C   UNL     1       3.460  -0.246   0.000  0.00  0.00    +0.000 A 
ATOM     11  C   UNL     1       3.968  -0.896   0.000  0.00  0.00    +0.000 A 
ATOM     12  C   UNL     1       3.659  -1.661   0.000  0.00  0.00    +0.000 A 
ATOM     13 CL   UNL     1       4.167  -2.311   0.000  0.00  0.00    +0.000 Cl
ATOM     14  C   UNL     1       2.842  -1.776   0.000  0.00  0.00    +0.000 A 
ATOM     15  C   UNL     1       2.334  -1.126   0.000  0.00  0.00    +0.000 A 
ENDBRANCH   5   9
ENDBRANCH   1   2
BRANCH   1  16
ATOM     16  C   UNL     1      -0.838   0.191   0.000  0.00  0.00    +0.000 C 
BRANCH  16  17
ATOM     17  C   UNL     1      -1.645   0.362   0.000  0.00  0.00    +0.000 C 
BRANCH  17  18
ATOM     18  C   UNL     1      -2.197  -0.251   0.000  0.00  0.00    +0.000 C 
ATOM     19  S   UNL     1      -1.530  -0.736   0.000  0.00  0.00    +0.000 S 
ATOM     20  C   UNL     1      -1.785  -1.521   0.000  0.00  0.00    +0.000 C 
ATOM     21  C   UNL     1      -2.610  -1.521   0.000  0.00  0.00    +0.000 C 
ATOM     22  S   UNL     1      -2.865  -0.736   0.000  0.00  0.00    +0.000 S 
BRANCH  18  23
ATOM     23  C   UNL     1      -2.749   0.362   0.000  0.00  0.00    +0.000 A 
ATOM     24  C   UNL     1      -3.556   0.191   0.000  0.00  0.00    +0.000 A 
ATOM     25  C   UNL     1      -4.108   0.804   0.000  0.00  0.00    +0.000 A 
ATOM     26  C   UNL     1      -3.853   1.588   0.000  0.00  0.00    +0.000 A 
ATOM     27  F   UNL     1      -4.405   2.201   0.000  0.00  0.00    +0.000 F 
ATOM     28  C   UNL     1      -3.046   1.760   0.000  0.00  0.00    +0.000 A 
ATOM     29  C   UNL     1      -2.494   1.147   0.000  0.00  0.00    +0.000 A 
ENDBRANCH  18  23
ENDBRANCH  17  18
ENDBRANCH  16  17
ENDBRANCH   1  16
TORSDOF 6
