REMARK  Name = THN
REMARK  6 active torsions:
REMARK  status: ('A' for Active; 'I' for Inactive)
REMARK    1  A    between atoms: CA_5  and  C_6
REMARK    2  A    between atoms: C_10  and  CA_11
REMARK    3  A    between atoms: CA_11  and  C_12
REMARK    4  A    between atoms: CA_11  and  N_15
REMARK    5  A    between atoms: C_16  and  C_18
REMARK    6  A    between atoms: C_18  and  C_19
REMARK                            x       y       z     vdW  Elec       q    Type
REMARK                         _______ _______ _______ _____ _____    ______ ____
ROOT
ATOM      1  CA  UNL     1      -0.528  -0.261   0.000  0.00  0.00    +0.000 C 
ENDROOT
BRANCH   1   8
ATOM      2  S   UNL     1      -1.765   0.453   0.000  0.00  0.00    +0.000 S 
ATOM      3  C   UNL     1      -2.178   1.168   0.000  0.00  0.00    +0.000 C 
ATOM      4  C   UNL     1      -1.765   1.882   0.000  0.00  0.00    +0.000 C 
ATOM      5  C   UNL     1      -2.178   2.597   0.000  0.00  0.00    +0.000 C 
ATOM      6  CA  UNL     1      -0.940   1.882   0.000  0.00  0.00    +0.000 C 
ATOM      7  N   UNL     1      -0.528   1.168   0.000  0.00  0.00    +0.000 NA
ATOM      8  C   UNL     1      -0.940   0.453   0.000  0.00  0.00    +0.000 C 
BRANCH   6   9
ATOM      9  C   UNL     1      -0.528   2.597   0.000  0.00  0.00    +0.000 C 
ATOM     10  O   UNL     1       0.297   2.597   0.000  0.00  0.00    +0.000 OA
ATOM     11  OXT UNL     1      -0.940   3.311   0.000  0.00  0.00    +0.000 OA
ENDBRANCH   6   9
ENDBRANCH   1   8
BRANCH   1  12
ATOM     12  N   UNL     1       0.297  -0.261   0.000  0.00  0.00    +0.000 NA
ATOM     13  C   UNL     1       0.710  -0.976   0.000  0.00  0.00    +0.000 C 
ATOM     14  O   UNL     1       0.297  -1.690   0.000  0.00  0.00    +0.000 OA
BRANCH  13  15
ATOM     15  C   UNL     1       1.535  -0.976   0.000  0.00  0.00    +0.000 C 
BRANCH  15  16
ATOM     16  C   UNL     1       1.947  -1.690   0.000  0.00  0.00    +0.000 A 
ATOM     17  C   UNL     1       2.768  -1.776   0.000  0.00  0.00    +0.000 A 
ATOM     18  C   UNL     1       2.939  -2.583   0.000  0.00  0.00    +0.000 A 
ATOM     19  C   UNL     1       2.225  -2.996   0.000  0.00  0.00    +0.000 A 
ATOM     20  S   UNL     1       1.612  -2.444   0.000  0.00  0.00    +0.000 S 
ENDBRANCH  15  16
ENDBRANCH  13  15
ENDBRANCH   1  12
BRANCH   1  21
ATOM     21  C   UNL     1      -0.940  -0.976   0.000  0.00  0.00    +0.000 C 
ATOM     22  O   UNL     1      -0.528  -1.690   0.000  0.00  0.00    +0.000 OA
ATOM     23  OXT UNL     1      -1.765  -0.976   0.000  0.00  0.00    +0.000 OA
ENDBRANCH   1  21
TORSDOF 6
