REMARK  Name = THZ
REMARK  6 active torsions:
REMARK  status: ('A' for Active; 'I' for Inactive)
REMARK    1  A    between atoms: C_2  and  C_3
REMARK    2  A    between atoms: C_2  and  C_10
REMARK    3  A    between atoms: C_3  and  C_4
REMARK    4  A    between atoms: C_4  and  C_5
REMARK    5  A    between atoms: C_5  and  N_6
REMARK    6  A    between atoms: C_10  and  C_12
REMARK                            x       y       z     vdW  Elec       q    Type
REMARK                         _______ _______ _______ _____ _____    ______ ____
ROOT
ATOM      1  C   UNL     1       0.039   0.511   0.000  0.00  0.00    +0.000 C 
ATOM      2  O   UNL     1       0.039   1.336   0.000  0.00  0.00    +0.000 OA
ENDROOT
BRANCH   1   3
ATOM      3  C   UNL     1       0.753   0.099   0.000  0.00  0.00    +0.000 A 
ATOM      4  S   UNL     1       1.507   0.434   0.000  0.00  0.00    +0.000 S 
ATOM      5  C   UNL     1       2.059  -0.179   0.000  0.00  0.00    +0.000 A 
ATOM      6  C   UNL     1       2.884  -0.179   0.000  0.00  0.00    +0.000 A 
ATOM      7  C   UNL     1       3.297  -0.893   0.000  0.00  0.00    +0.000 A 
ATOM      8  C   UNL     1       2.884  -1.608   0.000  0.00  0.00    +0.000 A 
ATOM      9  C   UNL     1       2.059  -1.608   0.000  0.00  0.00    +0.000 A 
ATOM     10  C   UNL     1       1.647  -0.893   0.000  0.00  0.00    +0.000 A 
ATOM     11  N   UNL     1       0.840  -0.722   0.000  0.00  0.00    +0.000 NA
ENDBRANCH   1   3
BRANCH   1  13
ATOM     12  N   UNL     1      -0.675  -0.726   0.000  0.00  0.00    +0.000 NA
ATOM     13  C   UNL     1      -0.675   0.099   0.000  0.00  0.00    +0.000 C 
BRANCH  13  14
ATOM     14  C   UNL     1      -1.390   0.511   0.000  0.00  0.00    +0.000 C 
BRANCH  14  15
ATOM     15  C   UNL     1      -2.104   0.099   0.000  0.00  0.00    +0.000 C 
BRANCH  15  16
ATOM     16  C   UNL     1      -2.819   0.511   0.000  0.00  0.00    +0.000 C 
BRANCH  16  17
ATOM     17  N   UNL     1      -3.533   0.099   0.000  0.00  0.00    +0.000 NA
ATOM     18  C   UNL     1      -4.248   0.511   0.000  0.00  0.00    +0.000 C 
ATOM     19  N   UNL     1      -4.962   0.099   0.000  0.00  0.00    +0.000 NA
ATOM     20  N   UNL     1      -4.248   1.336   0.000  0.00  0.00    +0.000 NA
ENDBRANCH  16  17
ENDBRANCH  15  16
ENDBRANCH  14  15
ENDBRANCH  13  14
ENDBRANCH   1  13
TORSDOF 6
