REMARK  Name = TI1
REMARK  11 active torsions:
REMARK  status: ('A' for Active; 'I' for Inactive)
REMARK    1  A    between atoms: C_2  and  C_3
REMARK    2  A    between atoms: C_2  and  C_8
REMARK    3  A    between atoms: C_3  and  C_4
REMARK    4  A    between atoms: C_4  and  C_5
REMARK    5  A    between atoms: C_5  and  C_6
REMARK    6  A    between atoms: N_10  and  CA_11
REMARK    7  A    between atoms: CA_11  and  CB_12
REMARK    8  A    between atoms: CA_11  and  C_19
REMARK    9  A    between atoms: CB_12  and  CG_13
REMARK   10  A    between atoms: N_21  and  CA_22
REMARK   11  A    between atoms: CA_22  and  C_24
REMARK                            x       y       z     vdW  Elec       q    Type
REMARK                         _______ _______ _______ _____ _____    ______ ____
ROOT
ATOM      1  CA  PHE A   1       0.617   0.816   0.000  0.00  0.00    +0.000 C 
ENDROOT
BRANCH   1   2
ATOM      2  C   PHE A   1       0.944   0.059   0.000  0.00  0.00    +0.000 C 
ATOM      3  O   PHE A   1       0.453  -0.604   0.000  0.00  0.00    +0.000 OA
ATOM      4  N   ALA A   2       1.764  -0.036   0.000  0.00  0.00    +0.000 NA
BRANCH   4   5
ATOM      5  CA  ALA A   2       2.092  -0.793   0.000  0.00  0.00    +0.000 C 
ATOM      6  CB  ALA A   2       1.600  -1.455   0.000  0.00  0.00    +0.000 C 
BRANCH   5   7
ATOM      7  C   ALA A   2       2.911  -0.887   0.000  0.00  0.00    +0.000 C 
ATOM      8  O   ALA A   2       3.403  -0.225   0.000  0.00  0.00    +0.000 OA
ATOM      9  OXT ALA A   2       3.239  -1.644   0.000  0.00  0.00    +0.000 OA
ENDBRANCH   5   7
ENDBRANCH   4   5
ENDBRANCH   1   2
BRANCH   1  12
ATOM     10  C   UNK A   0      -0.695   0.248   0.000  0.00  0.00    +0.000 C 
ATOM     11  O   UNK A   0      -0.367  -0.509   0.000  0.00  0.00    +0.000 OA
ATOM     12  N   PHE A   1      -0.203   0.911   0.000  0.00  0.00    +0.000 NA
BRANCH  10  14
ATOM     13  S   UNK A   0      -1.842   1.100   0.000  0.00  0.00    +0.000 S 
ATOM     14  C   UNK A   0      -1.514   0.343   0.000  0.00  0.00    +0.000 C 
BRANCH  14  15
ATOM     15  C   UNK A   0      -2.006  -0.320   0.000  0.00  0.00    +0.000 C 
BRANCH  15  16
ATOM     16  C   UNK A   0      -2.826  -0.225   0.000  0.00  0.00    +0.000 C 
BRANCH  16  17
ATOM     17  C   UNK A   0      -3.317  -0.887   0.000  0.00  0.00    +0.000 C 
BRANCH  17  18
ATOM     18  C   UNK A   0      -4.137  -0.793   0.000  0.00  0.00    +0.000 C 
ATOM     19  C   UNK A   0      -4.629  -1.455   0.000  0.00  0.00    +0.000 C 
ENDBRANCH  17  18
ENDBRANCH  16  17
ENDBRANCH  15  16
ENDBRANCH  14  15
ENDBRANCH  10  14
ENDBRANCH   1  12
BRANCH   1  20
ATOM     20  CB  PHE A   1       1.108   1.478   0.000  0.00  0.00    +0.000 C 
BRANCH  20  21
ATOM     21  CG  PHE A   1       1.928   1.384   0.000  0.00  0.00    +0.000 A 
ATOM     22  CD1 PHE A   1       2.420   2.046   0.000  0.00  0.00    +0.000 A 
ATOM     23  CD2 PHE A   1       2.256   0.627   0.000  0.00  0.00    +0.000 A 
ATOM     24  CE1 PHE A   1       3.239   1.952   0.000  0.00  0.00    +0.000 A 
ATOM     25  CE2 PHE A   1       3.075   0.532   0.000  0.00  0.00    +0.000 A 
ATOM     26  CZ  PHE A   1       3.567   1.195   0.000  0.00  0.00    +0.000 A 
ENDBRANCH  20  21
ENDBRANCH   1  20
TORSDOF 11
