REMARK  Name = TIO
REMARK  6 active torsions:
REMARK  status: ('A' for Active; 'I' for Inactive)
REMARK    1  A    between atoms: C_2  and  C_3
REMARK    2  A    between atoms: C_3  and  C_4
REMARK    3  A    between atoms: C_3  and  C_6
REMARK    4  A    between atoms: C_6  and  C_7
REMARK    5  A    between atoms: N_13  and  C_14
REMARK    6  A    between atoms: C_14  and  C_15
REMARK                            x       y       z     vdW  Elec       q    Type
REMARK                         _______ _______ _______ _____ _____    ______ ____
ROOT
ATOM      1  C   UNL     1      -0.288  -0.261   0.000  0.00  0.00    +0.000 C 
ENDROOT
BRANCH   1   2
ATOM      2  C   UNL     1      -1.002  -0.673   0.000  0.00  0.00    +0.000 C 
ATOM      3  O   UNL     1      -1.002  -1.498   0.000  0.00  0.00    +0.000 OA
ATOM      4  N   UNL     1      -1.717  -0.261   0.000  0.00  0.00    +0.000 NA
BRANCH   4   5
ATOM      5  C   UNL     1      -2.431  -0.673   0.000  0.00  0.00    +0.000 C 
BRANCH   5   6
ATOM      6  C   UNL     1      -3.146  -0.261   0.000  0.00  0.00    +0.000 C 
ATOM      7  O   UNL     1      -3.860  -0.673   0.000  0.00  0.00    +0.000 OA
ATOM      8  O   UNL     1      -3.146   0.564   0.000  0.00  0.00    +0.000 OA
ENDBRANCH   5   6
ENDBRANCH   4   5
ENDBRANCH   1   2
BRANCH   1  10
ATOM      9  S   UNL     1       0.427   0.977   0.000  0.00  0.00    +0.000 S 
ATOM     10  C   UNL     1      -0.288   0.564   0.000  0.00  0.00    +0.000 C 
ENDBRANCH   1  10
BRANCH   1  11
ATOM     11  C   UNL     1       0.427  -0.673   0.000  0.00  0.00    +0.000 C 
BRANCH  11  12
ATOM     12  C   UNL     1       1.141  -0.261   0.000  0.00  0.00    +0.000 A 
ATOM     13  C   UNL     1       1.141   0.564   0.000  0.00  0.00    +0.000 A 
ATOM     14  C   UNL     1       1.856  -0.673   0.000  0.00  0.00    +0.000 A 
ATOM     15  C   UNL     1       1.856   0.977   0.000  0.00  0.00    +0.000 A 
ATOM     16  C   UNL     1       2.570  -0.261   0.000  0.00  0.00    +0.000 A 
ATOM     17  C   UNL     1       2.570   0.564   0.000  0.00  0.00    +0.000 A 
ENDBRANCH  11  12
ENDBRANCH   1  11
TORSDOF 6
