REMARK  Name = TL1
REMARK  6 active torsions:
REMARK  status: ('A' for Active; 'I' for Inactive)
REMARK    1  A    between atoms: C_2  and  C_4
REMARK    2  A    between atoms: C_8  and  O_9
REMARK    3  A    between atoms: O_9  and  C_10
REMARK    4  A    between atoms: C_14  and  O_15
REMARK    5  A    between atoms: O_15  and  C_16
REMARK    6  A    between atoms: C_20  and  C_21
REMARK                            x       y       z     vdW  Elec       q    Type
REMARK                         _______ _______ _______ _____ _____    ______ ____
ROOT
ATOM      1  C   UNL     1       0.117  -0.967   0.000  0.00  0.00    +0.000 C 
ATOM      2  C   UNL     1      -0.368  -0.299   0.000  0.00  0.00    +0.000 C 
ATOM      3  O   UNL     1       0.117   0.368   0.000  0.00  0.00    +0.000 OA
ATOM      4  C   UNL     1       0.901   0.113   0.000  0.00  0.00    +0.000 C 
ATOM      5  C   UNL     1       1.686   0.368   0.000  0.00  0.00    +0.000 C 
ATOM      6  C   UNL     1       2.171  -0.299   0.000  0.00  0.00    +0.000 C 
ATOM      7  O   UNL     1       1.686  -0.967   0.000  0.00  0.00    +0.000 OA
ATOM      8  C   UNL     1       0.901  -0.712   0.000  0.00  0.00    +0.000 C 
ENDROOT
BRANCH   5   9
ATOM      9  O   UNL     1       1.941   1.153   0.000  0.00  0.00    +0.000 OA
BRANCH   9  10
ATOM     10  C   UNL     1       1.389   1.766   0.000  0.00  0.00    +0.000 A 
ATOM     11  C   UNL     1       0.582   1.595   0.000  0.00  0.00    +0.000 A 
ATOM     12  C   UNL     1       0.030   2.208   0.000  0.00  0.00    +0.000 A 
ATOM     13  C   UNL     1       0.285   2.992   0.000  0.00  0.00    +0.000 A 
ATOM     14  C   UNL     1       1.092   3.164   0.000  0.00  0.00    +0.000 A 
ATOM     15  C   UNL     1       1.644   2.551   0.000  0.00  0.00    +0.000 A 
BRANCH  14  16
ATOM     16  C   UNL     1       1.347   3.948   0.000  0.00  0.00    +0.000 C 
ATOM     17  N   UNL     1       0.795   4.561   0.000  0.00  0.00    +0.000 NA
ATOM     18  N   UNL     1       2.154   4.120   0.000  0.00  0.00    +0.000 NA
ENDBRANCH  14  16
ENDBRANCH   9  10
ENDBRANCH   5   9
BRANCH   1  19
ATOM     19  O   UNL     1      -0.138  -1.751   0.000  0.00  0.00    +0.000 OA
BRANCH  19  24
ATOM     20  C   UNL     1      -2.007  -2.879   0.000  0.00  0.00    +0.000 A 
ATOM     21  C   UNL     1      -2.559  -2.266   0.000  0.00  0.00    +0.000 A 
ATOM     22  C   UNL     1      -2.304  -1.481   0.000  0.00  0.00    +0.000 A 
ATOM     23  C   UNL     1      -1.497  -1.310   0.000  0.00  0.00    +0.000 A 
ATOM     24  C   UNL     1      -0.945  -1.923   0.000  0.00  0.00    +0.000 A 
ATOM     25  C   UNL     1      -1.200  -2.707   0.000  0.00  0.00    +0.000 A 
BRANCH  20  27
ATOM     26  N   UNL     1      -3.069  -3.835   0.000  0.00  0.00    +0.000 NA
ATOM     27  C   UNL     1      -2.262  -3.663   0.000  0.00  0.00    +0.000 C 
ATOM     28  N   UNL     1      -1.710  -4.277   0.000  0.00  0.00    +0.000 NA
ENDBRANCH  20  27
ENDBRANCH  19  24
ENDBRANCH   1  19
TORSDOF 6
