REMARK  Name = TL2
REMARK  6 active torsions:
REMARK  status: ('A' for Active; 'I' for Inactive)
REMARK    1  A    between atoms: C_2  and  C_3
REMARK    2  A    between atoms: C_8  and  O_9
REMARK    3  A    between atoms: O_9  and  C_10
REMARK    4  A    between atoms: C_15  and  O_16
REMARK    5  A    between atoms: O_16  and  C_20
REMARK    6  A    between atoms: C_22  and  C_27
REMARK                            x       y       z     vdW  Elec       q    Type
REMARK                         _______ _______ _______ _____ _____    ______ ____
ROOT
ATOM      1  C   UNL     1      -0.612  -0.855   0.000  0.00  0.00    +0.000 C 
ATOM      2  C   UNL     1      -1.097  -0.187   0.000  0.00  0.00    +0.000 C 
ATOM      3  O   UNL     1      -0.612   0.480   0.000  0.00  0.00    +0.000 OA
ATOM      4  C   UNL     1       0.173  -0.600   0.000  0.00  0.00    +0.000 C 
ATOM      5  C   UNL     1       0.173   0.225   0.000  0.00  0.00    +0.000 C 
ATOM      6  C   UNL     1       0.957   0.480   0.000  0.00  0.00    +0.000 C 
ATOM      7  O   UNL     1       0.957  -0.855   0.000  0.00  0.00    +0.000 OA
ATOM      8  C   UNL     1       1.442  -0.187   0.000  0.00  0.00    +0.000 C 
ENDROOT
BRANCH   6   9
ATOM      9  O   UNL     1       1.212   1.265   0.000  0.00  0.00    +0.000 OA
BRANCH   9  11
ATOM     10  C   UNL     1       2.571   0.823   0.000  0.00  0.00    +0.000 A 
ATOM     11  C   UNL     1       2.019   1.436   0.000  0.00  0.00    +0.000 A 
ATOM     12  C   UNL     1       2.274   2.221   0.000  0.00  0.00    +0.000 A 
ATOM     13  C   UNL     1       3.378   0.995   0.000  0.00  0.00    +0.000 A 
ATOM     14  C   UNL     1       3.633   1.779   0.000  0.00  0.00    +0.000 A 
ATOM     15  C   UNL     1       3.081   2.392   0.000  0.00  0.00    +0.000 A 
BRANCH  15  16
ATOM     16  C   UNL     1       3.336   3.177   0.000  0.00  0.00    +0.000 C 
ATOM     17  N   UNL     1       2.784   3.790   0.000  0.00  0.00    +0.000 NA
ATOM     18  N   UNL     1       4.143   3.349   0.000  0.00  0.00    +0.000 NA
ENDBRANCH  15  16
ENDBRANCH   9  11
ENDBRANCH   6   9
BRANCH   1  19
ATOM     19  O   UNL     1      -0.867  -1.639   0.000  0.00  0.00    +0.000 OA
BRANCH  19  25
ATOM     20  C   UNL     1      -3.288  -2.154   0.000  0.00  0.00    +0.000 A 
ATOM     21  C   UNL     1      -3.033  -1.369   0.000  0.00  0.00    +0.000 A 
ATOM     22  C   UNL     1      -2.226  -1.198   0.000  0.00  0.00    +0.000 A 
ATOM     23  C   UNL     1      -2.736  -2.767   0.000  0.00  0.00    +0.000 A 
ATOM     24  C   UNL     1      -1.929  -2.596   0.000  0.00  0.00    +0.000 A 
ATOM     25  C   UNL     1      -1.674  -1.811   0.000  0.00  0.00    +0.000 A 
BRANCH  20  27
ATOM     26  N   UNL     1      -4.350  -3.110   0.000  0.00  0.00    +0.000 NA
ATOM     27  C   UNL     1      -4.095  -2.325   0.000  0.00  0.00    +0.000 C 
ATOM     28  N   UNL     1      -4.647  -1.712   0.000  0.00  0.00    +0.000 NA
ENDBRANCH  20  27
ENDBRANCH  19  25
ENDBRANCH   1  19
TORSDOF 6
