REMARK  Name = TL3
REMARK  6 active torsions:
REMARK  status: ('A' for Active; 'I' for Inactive)
REMARK    1  A    between atoms: C_2  and  C_4
REMARK    2  A    between atoms: C_7  and  O_8
REMARK    3  A    between atoms: O_8  and  C_9
REMARK    4  A    between atoms: C_13  and  O_14
REMARK    5  A    between atoms: O_14  and  C_15
REMARK    6  A    between atoms: C_18  and  C_19
REMARK                            x       y       z     vdW  Elec       q    Type
REMARK                         _______ _______ _______ _____ _____    ______ ____
ROOT
ATOM      1  C   UNL     1      -0.765  -0.691   0.000  0.00  0.00    +0.000 C 
ATOM      2  C   UNL     1      -1.250  -0.023   0.000  0.00  0.00    +0.000 C 
ATOM      3  O   UNL     1      -0.765   0.644   0.000  0.00  0.00    +0.000 OA
ATOM      4  C   UNL     1       0.020   0.389   0.000  0.00  0.00    +0.000 C 
ATOM      5  C   UNL     1       0.804   0.644   0.000  0.00  0.00    +0.000 C 
ATOM      6  C   UNL     1       1.289  -0.023   0.000  0.00  0.00    +0.000 C 
ATOM      7  O   UNL     1       0.804  -0.691   0.000  0.00  0.00    +0.000 OA
ATOM      8  C   UNL     1       0.020  -0.436   0.000  0.00  0.00    +0.000 C 
ENDROOT
BRANCH   5   9
ATOM      9  O   UNL     1       1.059   1.429   0.000  0.00  0.00    +0.000 OA
BRANCH   9  10
ATOM     10  C   UNL     1       1.866   1.600   0.000  0.00  0.00    +0.000 A 
ATOM     11  C   UNL     1       2.121   2.385   0.000  0.00  0.00    +0.000 A 
ATOM     12  C   UNL     1       2.928   2.556   0.000  0.00  0.00    +0.000 A 
ATOM     13  C   UNL     1       3.480   1.943   0.000  0.00  0.00    +0.000 A 
ATOM     14  C   UNL     1       3.225   1.159   0.000  0.00  0.00    +0.000 A 
ATOM     15  C   UNL     1       2.418   0.987   0.000  0.00  0.00    +0.000 A 
BRANCH  13  16
ATOM     16  C   UNL     1       4.287   2.115   0.000  0.00  0.00    +0.000 C 
ATOM     17  N   UNL     1       4.542   2.899   0.000  0.00  0.00    +0.000 NA
ATOM     18  N   UNL     1       4.839   1.502   0.000  0.00  0.00    +0.000 NA
ENDBRANCH  13  16
ENDBRANCH   9  10
ENDBRANCH   5   9
BRANCH   1  19
ATOM     19  O   UNL     1      -1.020  -1.476   0.000  0.00  0.00    +0.000 OA
BRANCH  19  23
ATOM     20  C   UNL     1      -3.441  -1.990   0.000  0.00  0.00    +0.000 A 
ATOM     21  C   UNL     1      -3.186  -1.206   0.000  0.00  0.00    +0.000 A 
ATOM     22  C   UNL     1      -2.379  -1.034   0.000  0.00  0.00    +0.000 A 
ATOM     23  C   UNL     1      -1.827  -1.647   0.000  0.00  0.00    +0.000 A 
ATOM     24  C   UNL     1      -2.082  -2.432   0.000  0.00  0.00    +0.000 A 
ATOM     25  C   UNL     1      -2.889  -2.603   0.000  0.00  0.00    +0.000 A 
BRANCH  20  27
ATOM     26  N   UNL     1      -4.503  -2.946   0.000  0.00  0.00    +0.000 NA
ATOM     27  C   UNL     1      -4.248  -2.162   0.000  0.00  0.00    +0.000 C 
ATOM     28  N   UNL     1      -4.800  -1.548   0.000  0.00  0.00    +0.000 NA
ENDBRANCH  20  27
ENDBRANCH  19  23
ENDBRANCH   1  19
TORSDOF 6
