REMARK  Name = TL5
REMARK  2 active torsions:
REMARK  status: ('A' for Active; 'I' for Inactive)
REMARK    1  A    between atoms: C_6  and  C_10
REMARK    2  A    between atoms: C_11  and  C_13
REMARK                            x       y       z     vdW  Elec       q    Type
REMARK                         _______ _______ _______ _____ _____    ______ ____
ROOT
ATOM      1  O   UNL     1       1.462  -2.874   0.000  0.00  0.00    +0.000 OA
ATOM      2  C   UNL     1       0.977  -2.206   0.000  0.00  0.00    +0.000 C 
ATOM      3  C   UNL     1       0.152  -2.206   0.000  0.00  0.00    +0.000 C 
ATOM      4  C   UNL     1      -0.333  -2.874   0.000  0.00  0.00    +0.000 C 
ATOM      5  S   UNL     1       1.232  -1.422   0.000  0.00  0.00    +0.000 S 
ATOM      6  C   UNL     1       0.564  -0.937   0.000  0.00  0.00    +0.000 C 
ATOM      7  C   UNL     1      -0.103  -1.422   0.000  0.00  0.00    +0.000 C 
ATOM      8  O   UNL     1      -0.888  -1.167   0.000  0.00  0.00    +0.000 OA
ATOM      9  C   UNL     1       0.969  -0.218   0.000  0.00  0.00    +0.000 C 
ENDROOT
BRANCH   6  10
ATOM     10  C   UNL     1       0.159  -0.218   0.000  0.00  0.00    +0.000 C 
ATOM     11  C   UNL     1       0.579   0.492   0.000  0.00  0.00    +0.000 C 
ATOM     12  C   UNL     1       1.404   0.483   0.000  0.00  0.00    +0.000 C 
BRANCH  11  13
ATOM     13  C   UNL     1       0.174   1.211   0.000  0.00  0.00    +0.000 C 
ATOM     14  C   UNL     1       0.594   1.921   0.000  0.00  0.00    +0.000 C 
ATOM     15  C   UNL     1       0.189   2.640   0.000  0.00  0.00    +0.000 C 
ENDBRANCH  11  13
ENDBRANCH   6  10
TORSDOF 2
