REMARK  Name = TL6
REMARK  2 active torsions:
REMARK  status: ('A' for Active; 'I' for Inactive)
REMARK    1  A    between atoms: C_4  and  C_10
REMARK    2  A    between atoms: C_11  and  C_12
REMARK                            x       y       z     vdW  Elec       q    Type
REMARK                         _______ _______ _______ _____ _____    ______ ____
ROOT
ATOM      1  O   UNL     1      -1.715  -1.690   0.000  0.00  0.00    +0.000 OA
ATOM      2  C   UNL     1      -1.230  -1.023   0.000  0.00  0.00    +0.000 C 
ATOM      3  S   UNL     1      -1.485  -0.238   0.000  0.00  0.00    +0.000 S 
ATOM      4  C   UNL     1      -0.818   0.247   0.000  0.00  0.00    +0.000 C 
ATOM      5  C   UNL     1      -1.370   0.860   0.000  0.00  0.00    +0.000 C 
ATOM      6  C   UNL     1      -0.150  -0.238   0.000  0.00  0.00    +0.000 C 
ATOM      7  O   UNL     1       0.634   0.017   0.000  0.00  0.00    +0.000 OA
ATOM      8  C   UNL     1      -0.405  -1.023   0.000  0.00  0.00    +0.000 C 
ATOM      9  C   UNL     1       0.080  -1.690   0.000  0.00  0.00    +0.000 C 
ENDROOT
BRANCH   4  10
ATOM     10  C   UNL     1      -0.266   0.860   0.000  0.00  0.00    +0.000 C 
ATOM     11  C   UNL     1       0.541   0.689   0.000  0.00  0.00    +0.000 C 
BRANCH  11  12
ATOM     12  C   UNL     1       1.093   1.302   0.000  0.00  0.00    +0.000 C 
ATOM     13  C   UNL     1       0.838   2.086   0.000  0.00  0.00    +0.000 C 
ENDBRANCH  11  12
ENDBRANCH   4  10
TORSDOF 2
