REMARK  Name = TLM
REMARK  2 active torsions:
REMARK  status: ('A' for Active; 'I' for Inactive)
REMARK    1  A    between atoms: C_5  and  C_6
REMARK    2  A    between atoms: C_7  and  C_8
REMARK                            x       y       z     vdW  Elec       q    Type
REMARK                         _______ _______ _______ _____ _____    ______ ____
ROOT
ATOM      1  S   UNL     1       0.101  -0.516   0.000  0.00  0.00    +0.000 S 
ATOM      2  C   UNL     1      -0.154  -1.300   0.000  0.00  0.00    +0.000 C 
ATOM      3  C   UNL     1      -0.979  -1.300   0.000  0.00  0.00    +0.000 C 
ATOM      4  C   UNL     1      -1.234  -0.516   0.000  0.00  0.00    +0.000 C 
ATOM      5  C   UNL     1      -0.566  -0.031   0.000  0.00  0.00    +0.000 C 
ATOM      6  O   UNL     1       0.331  -1.968   0.000  0.00  0.00    +0.000 OA
ATOM      7  C   UNL     1      -1.464  -1.968   0.000  0.00  0.00    +0.000 C 
ATOM      8  O   UNL     1      -2.018  -0.261   0.000  0.00  0.00    +0.000 OA
ATOM      9  C   UNL     1      -0.971   0.688   0.000  0.00  0.00    +0.000 C 
ENDROOT
BRANCH   5  10
ATOM     10  C   UNL     1      -0.161   0.688   0.000  0.00  0.00    +0.000 C 
ATOM     11  C   UNL     1       0.664   0.697   0.000  0.00  0.00    +0.000 C 
ATOM     12  C   UNL     1       1.084  -0.014   0.000  0.00  0.00    +0.000 C 
BRANCH  11  13
ATOM     13  C   UNL     1       1.069   1.415   0.000  0.00  0.00    +0.000 C 
ATOM     14  C   UNL     1       1.894   1.424   0.000  0.00  0.00    +0.000 C 
ENDBRANCH  11  13
ENDBRANCH   5  10
TORSDOF 2
