REMARK  Name = TLX
REMARK  4 active torsions:
REMARK  status: ('A' for Active; 'I' for Inactive)
REMARK    1  A    between atoms: N_1  and  C_10
REMARK    2  A    between atoms: C_10  and  C_11
REMARK    3  A    between atoms: C_11  and  C_12
REMARK    4  A    between atoms: C_12  and  C_13
REMARK                            x       y       z     vdW  Elec       q    Type
REMARK                         _______ _______ _______ _____ _____    ______ ____
ROOT
ATOM      1  N   UNL     1      -0.589  -0.013   0.000  0.00  0.00    +0.000 NA
ATOM      2  C   UNL     1      -0.589  -0.838   0.000  0.00  0.00    +0.000 C 
ATOM      3  C   UNL     1      -1.304  -1.250   0.000  0.00  0.00    +0.000 C 
ATOM      4  C   UNL     1      -2.018  -0.838   0.000  0.00  0.00    +0.000 C 
ATOM      5  N   UNL     1      -2.018  -0.013   0.000  0.00  0.00    +0.000 NA
ATOM      6  C   UNL     1      -2.631   0.539   0.000  0.00  0.00    +0.000 C 
ATOM      7  C   UNL     1      -2.296   1.293   0.000  0.00  0.00    +0.000 C 
ATOM      8  C   UNL     1      -1.475   1.207   0.000  0.00  0.00    +0.000 C 
ATOM      9  C   UNL     1      -1.304   0.400   0.000  0.00  0.00    +0.000 C 
ENDROOT
BRANCH   1  10
ATOM     10  C   UNL     1       0.125   0.400   0.000  0.00  0.00    +0.000 C 
BRANCH  10  11
ATOM     11  C   UNL     1       0.840  -0.013   0.000  0.00  0.00    +0.000 C 
ATOM     12  N   UNL     1       0.840  -0.838   0.000  0.00  0.00    +0.000 NA
BRANCH  11  13
ATOM     13  C   UNL     1       1.554   0.400   0.000  0.00  0.00    +0.000 C 
BRANCH  13  14
ATOM     14  C   UNL     1       2.269  -0.013   0.000  0.00  0.00    +0.000 C 
ATOM     15  C   UNL     1       2.983   0.400   0.000  0.00  0.00    +0.000 C 
ATOM     16  C   UNL     1       2.269  -0.838   0.000  0.00  0.00    +0.000 C 
ENDBRANCH  13  14
ENDBRANCH  11  13
ENDBRANCH  10  11
ENDBRANCH   1  10
TORSDOF 4
