REMARK  Name = TMJ
REMARK  3 active torsions:
REMARK  status: ('A' for Active; 'I' for Inactive)
REMARK    1  A    between atoms: C_2  and  N_13
REMARK    2  A    between atoms: N_13  and  S_14
REMARK    3  A    between atoms: S_14  and  C_17
REMARK                            x       y       z     vdW  Elec       q    Type
REMARK                         _______ _______ _______ _____ _____    ______ ____
ROOT
ATOM      1  S   UNL     1      -1.038   1.413   0.000  0.00  0.00    +0.000 S 
ATOM      2  O   UNL     1      -1.450   0.699   0.000  0.00  0.00    +0.000 OA
ATOM      3  O   UNL     1      -0.625   2.128   0.000  0.00  0.00    +0.000 OA
ENDROOT
BRANCH   1   9
ATOM      4  C   UNL     1       1.820  -0.236   0.000  0.00  0.00    +0.000 C 
ATOM      5  C   UNL     1       0.391  -0.236   0.000  0.00  0.00    +0.000 A 
ATOM      6  C   UNL     1       1.106   1.001   0.000  0.00  0.00    +0.000 A 
ATOM      7  C   UNL     1       2.534   0.176   0.000  0.00  0.00    +0.000 C 
ATOM      8  C   UNL     1       1.820   1.413   0.000  0.00  0.00    +0.000 C 
ATOM      9  C   UNL     1      -0.323   1.001   0.000  0.00  0.00    +0.000 A 
ATOM     10  C   UNL     1       0.391   1.413   0.000  0.00  0.00    +0.000 A 
ATOM     11  C   UNL     1      -0.323   0.176   0.000  0.00  0.00    +0.000 A 
ATOM     12  C   UNL     1       1.106   0.176   0.000  0.00  0.00    +0.000 A 
ATOM     13  N   UNL     1       2.534   1.001   0.000  0.00  0.00    +0.000 NA
ENDBRANCH   1   9
BRANCH   1  14
ATOM     14  N   UNL     1      -1.752   1.826   0.000  0.00  0.00    +0.000 NA
BRANCH  14  15
ATOM     15  C   UNL     1      -2.467   1.413   0.000  0.00  0.00    +0.000 A 
ATOM     16  C   UNL     1      -3.896   0.589   0.000  0.00  0.00    +0.000 A 
ATOM     17  C   UNL     1      -3.896   1.413   0.000  0.00  0.00    +0.000 A 
ATOM     18  C   UNL     1      -3.181   0.176   0.000  0.00  0.00    +0.000 A 
ATOM     19  C   UNL     1      -3.181   1.826   0.000  0.00  0.00    +0.000 A 
ATOM     20  C   UNL     1      -2.467   0.589   0.000  0.00  0.00    +0.000 A 
ATOM     21 CL   UNL     1      -4.610   0.176   0.000  0.00  0.00    +0.000 Cl
ENDBRANCH  14  15
ENDBRANCH   1  14
TORSDOF 3
