REMARK  Name = TN4
REMARK  7 active torsions:
REMARK  status: ('A' for Active; 'I' for Inactive)
REMARK    1  A    between atoms: C_2  and  O_4
REMARK    2  A    between atoms: O_4  and  C_5
REMARK    3  A    between atoms: C_11  and  C_15
REMARK    4  A    between atoms: C_12  and  O_13
REMARK    5  A    between atoms: C_17  and  C_18
REMARK    6  A    between atoms: C_18  and  C_19
REMARK    7  A    between atoms: C_24  and  C_26
REMARK                            x       y       z     vdW  Elec       q    Type
REMARK                         _______ _______ _______ _____ _____    ______ ____
ROOT
ATOM      1  C   UNL     1       0.036   1.476   0.000  0.00  0.00    +0.000 C 
ATOM      2  C   UNL     1       0.751   1.063   0.000  0.00  0.00    +0.000 C 
ATOM      3  C   UNL     1       0.751   0.238   0.000  0.00  0.00    +0.000 C 
ATOM      4  C   UNL     1       0.036  -0.174   0.000  0.00  0.00    +0.000 C 
ATOM      5  O   UNL     1       0.449  -0.889   0.000  0.00  0.00    +0.000 OA
ATOM      6  C   UNL     1      -0.376  -0.889   0.000  0.00  0.00    +0.000 C 
ATOM      7  C   UNL     1      -0.678   0.238   0.000  0.00  0.00    +0.000 C 
ATOM      8  C   UNL     1      -0.678   1.063   0.000  0.00  0.00    +0.000 C 
ENDROOT
BRANCH   7   9
ATOM      9  C   UNL     1      -1.393  -0.174   0.000  0.00  0.00    +0.000 C 
ATOM     10  O   UNL     1      -1.923  -0.806   0.000  0.00  0.00    +0.000 OA
ATOM     11  C   UNL     1      -1.111  -0.950   0.000  0.00  0.00    +0.000 C 
ATOM     12  C   UNL     1      -1.923   0.458   0.000  0.00  0.00    +0.000 C 
BRANCH  11  13
ATOM     13  C   UNL     1      -0.479  -1.480   0.000  0.00  0.00    +0.000 C 
BRANCH  13  14
ATOM     14  C   UNL     1      -0.622  -2.292   0.000  0.00  0.00    +0.000 C 
ATOM     15  C   UNL     1       0.010  -2.823   0.000  0.00  0.00    +0.000 C 
ATOM     16  C   UNL     1      -0.133  -3.635   0.000  0.00  0.00    +0.000 C 
ATOM     17  C   UNL     1       0.785  -2.541   0.000  0.00  0.00    +0.000 C 
ENDBRANCH  13  14
ENDBRANCH  11  13
ENDBRANCH   7   9
BRANCH   8  18
ATOM     18  O   UNL     1      -1.393   1.476   0.000  0.00  0.00    +0.000 OA
ATOM     19  C   UNL     1      -2.107   1.063   0.000  0.00  0.00    +0.000 C 
ENDBRANCH   8  18
BRANCH   1  20
ATOM     20  O   UNL     1       0.036   2.301   0.000  0.00  0.00    +0.000 OA
BRANCH  20  22
ATOM     21  N   UNL     1       1.465   2.301   0.000  0.00  0.00    +0.000 NA
ATOM     22  C   UNL     1       0.751   2.713   0.000  0.00  0.00    +0.000 C 
ATOM     23  O   UNL     1       0.751   3.538   0.000  0.00  0.00    +0.000 OA
ATOM     24  C   UNL     1       2.179   2.713   0.000  0.00  0.00    +0.000 C 
ATOM     25  O   UNL     1       2.179   3.538   0.000  0.00  0.00    +0.000 OA
BRANCH  24  26
ATOM     26  C   UNL     1       2.894   2.301   0.000  0.00  0.00    +0.000 C 
ATOM     27 CL   UNL     1       3.608   2.713   0.000  0.00  0.00    +0.000 Cl
ENDBRANCH  24  26
ENDBRANCH  20  22
ENDBRANCH   1  20
TORSDOF 7
