REMARK  Name = TNK
REMARK  7 active torsions:
REMARK  status: ('A' for Active; 'I' for Inactive)
REMARK    1  A    between atoms: C_1  and  C_15
REMARK    2  A    between atoms: C_7  and  C_15
REMARK    3  A    between atoms: N_8  and  C_19
REMARK    4  A    between atoms: C_14  and  C_16
REMARK    5  A    between atoms: C_19  and  O_20
REMARK    6  A    between atoms: O_20  and  C_21
REMARK    7  A    between atoms: C_21  and  C_22
REMARK                            x       y       z     vdW  Elec       q    Type
REMARK                         _______ _______ _______ _____ _____    ______ ____
ROOT
ATOM      1  C   UNL     1       0.673   1.101   0.000  0.00  0.00    +0.000 A 
ATOM      2  N   UNL     1      -0.041   0.689   0.000  0.00  0.00    +0.000 N 
ATOM      3  C   UNL     1      -0.756   1.101   0.000  0.00  0.00    +0.000 A 
ATOM      4  O   UNL     1      -1.470   0.689   0.000  0.00  0.00    +0.000 OA
ATOM      5  N   UNL     1      -0.756   1.926   0.000  0.00  0.00    +0.000 NA
ATOM      6  C   UNL     1      -0.041   2.339   0.000  0.00  0.00    +0.000 A 
ATOM      7  O   UNL     1      -0.041   3.164   0.000  0.00  0.00    +0.000 OA
ATOM      8  C   UNL     1       0.673   1.926   0.000  0.00  0.00    +0.000 A 
ENDROOT
BRANCH   8   9
ATOM      9  C   UNL     1       1.387   2.339   0.000  0.00  0.00    +0.000 C 
ATOM     10  C   UNL     1       1.387   3.164   0.000  0.00  0.00    +0.000 C 
ATOM     11  C   UNL     1       2.102   1.926   0.000  0.00  0.00    +0.000 C 
ENDBRANCH   8   9
BRANCH   1  12
ATOM     12  C   UNL     1       1.387   0.689   0.000  0.00  0.00    +0.000 C 
BRANCH  12  13
ATOM     13  C   UNL     1       1.387  -0.136   0.000  0.00  0.00    +0.000 A 
ATOM     14  C   UNL     1       2.102  -0.549   0.000  0.00  0.00    +0.000 A 
ATOM     15  C   UNL     1       2.102  -1.374   0.000  0.00  0.00    +0.000 A 
ATOM     16  C   UNL     1       1.387  -1.786   0.000  0.00  0.00    +0.000 A 
ATOM     17  C   UNL     1       0.673  -1.374   0.000  0.00  0.00    +0.000 A 
ATOM     18  C   UNL     1       0.673  -0.549   0.000  0.00  0.00    +0.000 A 
ENDBRANCH  12  13
ENDBRANCH   1  12
BRANCH   2  19
ATOM     19  C   UNL     1      -0.041  -0.136   0.000  0.00  0.00    +0.000 C 
BRANCH  19  20
ATOM     20  O   UNL     1      -0.756  -0.549   0.000  0.00  0.00    +0.000 OA
BRANCH  20  21
ATOM     21  C   UNL     1      -0.756  -1.374   0.000  0.00  0.00    +0.000 C 
BRANCH  21  22
ATOM     22  C   UNL     1      -1.470  -1.786   0.000  0.00  0.00    +0.000 A 
ATOM     23  C   UNL     1      -1.470  -2.611   0.000  0.00  0.00    +0.000 A 
ATOM     24  C   UNL     1      -2.185  -3.024   0.000  0.00  0.00    +0.000 A 
ATOM     25  C   UNL     1      -2.899  -2.611   0.000  0.00  0.00    +0.000 A 
ATOM     26  C   UNL     1      -2.899  -1.786   0.000  0.00  0.00    +0.000 A 
ATOM     27  C   UNL     1      -2.185  -1.374   0.000  0.00  0.00    +0.000 A 
ENDBRANCH  21  22
ENDBRANCH  20  21
ENDBRANCH  19  20
ENDBRANCH   2  19
TORSDOF 7
