REMARK  Name = TNL
REMARK  3 active torsions:
REMARK  status: ('A' for Active; 'I' for Inactive)
REMARK    1  A    between atoms: C_3  and  N_4
REMARK    2  A    between atoms: C_8  and  N_9
REMARK    3  A    between atoms: C_13  and  N_14
REMARK                            x       y       z     vdW  Elec       q    Type
REMARK                         _______ _______ _______ _____ _____    ______ ____
ROOT
ATOM      1  C   UNL     1       0.470   0.277   0.000  0.00  0.00    +0.000 A 
ATOM      2  C   UNL     1       1.185   0.689   0.000  0.00  0.00    +0.000 C 
ATOM      3  C   UNL     1       0.470  -0.548   0.000  0.00  0.00    +0.000 A 
ATOM      4  C   UNL     1      -0.244  -0.961   0.000  0.00  0.00    +0.000 A 
ATOM      5  C   UNL     1      -0.958  -0.548   0.000  0.00  0.00    +0.000 A 
ATOM      6  C   UNL     1      -0.958   0.277   0.000  0.00  0.00    +0.000 A 
ATOM      7  C   UNL     1      -0.244   0.689   0.000  0.00  0.00    +0.000 A 
ENDROOT
BRANCH   3   8
ATOM      8  N   UNL     1       1.185  -0.961   0.000  0.00  0.00    +0.000 N 
ATOM      9  O   UNL     1       1.185  -1.786   0.000  0.00  0.00    +0.000 OA
ATOM     10  O   UNL     1       1.899  -0.548   0.000  0.00  0.00    +0.000 OA
ENDBRANCH   3   8
BRANCH   5  11
ATOM     11  N   UNL     1      -1.673  -0.961   0.000  0.00  0.00    +0.000 N 
ATOM     12  O   UNL     1      -1.673  -1.786   0.000  0.00  0.00    +0.000 OA
ATOM     13  O   UNL     1      -2.387  -0.548   0.000  0.00  0.00    +0.000 OA
ENDBRANCH   5  11
BRANCH   7  14
ATOM     14  N   UNL     1      -0.244   1.514   0.000  0.00  0.00    +0.000 N 
ATOM     15  O   UNL     1      -0.958   1.927   0.000  0.00  0.00    +0.000 OA
ATOM     16  O   UNL     1       0.470   1.927   0.000  0.00  0.00    +0.000 OA
ENDBRANCH   7  14
TORSDOF 3
