REMARK  Name = TNS
REMARK  9 active torsions:
REMARK  status: ('A' for Active; 'I' for Inactive)
REMARK    1  A    between atoms: C_2  and  C_4
REMARK    2  A    between atoms: C_4  and  C_5
REMARK    3  A    between atoms: C_5  and  C_6
REMARK    4  A    between atoms: C_6  and  C_7
REMARK    5  A    between atoms: C_7  and  N_8
REMARK    6  A    between atoms: N_8  and  C_10
REMARK    7  A    between atoms: C_15  and  C_16
REMARK    8  A    between atoms: C_17  and  C_18
REMARK    9  A    between atoms: C_22  and  N_24
REMARK                            x       y       z     vdW  Elec       q    Type
REMARK                         _______ _______ _______ _____ _____    ______ ____
ROOT
ATOM      1  C   UNL     1      -0.082   2.993   0.000  0.00  0.00    +0.000 A 
ATOM      2  C   UNL     1       0.632   3.405   0.000  0.00  0.00    +0.000 A 
ATOM      3  C   UNL     1       1.347   2.993   0.000  0.00  0.00    +0.000 A 
ATOM      4  C   UNL     1      -0.082   2.168   0.000  0.00  0.00    +0.000 A 
ATOM      5  C   UNL     1       0.632   1.755   0.000  0.00  0.00    +0.000 A 
ATOM      6  C   UNL     1       1.347   2.168   0.000  0.00  0.00    +0.000 A 
ENDROOT
BRANCH   1   7
ATOM      7  N   UNL     1      -0.797   3.405   0.000  0.00  0.00    +0.000 N 
ATOM      8  C   UNL     1      -0.797   4.230   0.000  0.00  0.00    +0.000 C 
BRANCH   7   9
ATOM      9  C   UNL     1      -1.511   2.993   0.000  0.00  0.00    +0.000 C 
BRANCH   9  10
ATOM     10  C   UNL     1      -2.226   3.405   0.000  0.00  0.00    +0.000 C 
BRANCH  10  11
ATOM     11  C   UNL     1      -2.940   2.993   0.000  0.00  0.00    +0.000 C 
BRANCH  11  12
ATOM     12  C   UNL     1      -3.655   3.405   0.000  0.00  0.00    +0.000 C 
BRANCH  12  14
ATOM     13  O   UNL     1      -5.083   3.405   0.000  0.00  0.00    +0.000 OA
ATOM     14  C   UNL     1      -4.369   2.993   0.000  0.00  0.00    +0.000 C 
ATOM     15  O   UNL     1      -4.369   2.168   0.000  0.00  0.00    +0.000 OA
ENDBRANCH  12  14
ENDBRANCH  11  12
ENDBRANCH  10  11
ENDBRANCH   9  10
ENDBRANCH   7   9
ENDBRANCH   1   7
BRANCH   6  16
ATOM     16  C   UNL     1       2.061   1.755   0.000  0.00  0.00    +0.000 C 
ATOM     17  C   UNL     1       2.061   0.930   0.000  0.00  0.00    +0.000 C 
BRANCH  17  18
ATOM     18  C   UNL     1       2.776   0.518   0.000  0.00  0.00    +0.000 A 
ATOM     19  C   UNL     1       3.490   0.930   0.000  0.00  0.00    +0.000 A 
ATOM     20  C   UNL     1       2.776  -0.307   0.000  0.00  0.00    +0.000 A 
ATOM     21  C   UNL     1       3.490  -0.720   0.000  0.00  0.00    +0.000 A 
ATOM     22  C   UNL     1       4.205  -0.307   0.000  0.00  0.00    +0.000 A 
ATOM     23  C   UNL     1       4.205   0.518   0.000  0.00  0.00    +0.000 A 
BRANCH  22  24
ATOM     24  N   UNL     1       4.919  -0.720   0.000  0.00  0.00    +0.000 N 
ATOM     25  O   UNL     1       5.633  -0.307   0.000  0.00  0.00    +0.000 OA
ATOM     26  O   UNL     1       4.919  -1.545   0.000  0.00  0.00    +0.000 OA
ENDBRANCH  22  24
ENDBRANCH  17  18
ENDBRANCH   6  16
TORSDOF 9
