REMARK  Name = TOL
REMARK  6 active torsions:
REMARK  status: ('A' for Active; 'I' for Inactive)
REMARK    1  A    between atoms: C_1  and  C_5
REMARK    2  A    between atoms: C_6  and  O_7
REMARK    3  A    between atoms: C_12  and  C_17
REMARK    4  A    between atoms: C_17  and  N_19
REMARK    5  A    between atoms: N_19  and  C_21
REMARK    6  A    between atoms: C_21  and  C_22
REMARK                            x       y       z     vdW  Elec       q    Type
REMARK                         _______ _______ _______ _____ _____    ______ ____
ROOT
ATOM      1  C   UNL     1      -1.557   0.385   0.000  0.00  0.00    +0.000 A 
ATOM      2  C   UNL     1      -1.557   1.210   0.000  0.00  0.00    +0.000 A 
ATOM      3  C   UNL     1      -0.843   1.622   0.000  0.00  0.00    +0.000 A 
ATOM      4  C   UNL     1      -0.128   1.210   0.000  0.00  0.00    +0.000 A 
ATOM      5  C   UNL     1      -0.128   0.385   0.000  0.00  0.00    +0.000 A 
ATOM      6  C   UNL     1       0.586  -0.028   0.000  0.00  0.00    +0.000 A 
ATOM      7  C   UNL     1       0.586  -0.853   0.000  0.00  0.00    +0.000 A 
ATOM      8  C   UNL     1      -0.128  -1.265   0.000  0.00  0.00    +0.000 A 
ATOM      9  C   UNL     1      -0.843  -0.853   0.000  0.00  0.00    +0.000 A 
ATOM     10  C   UNL     1      -0.843  -0.028   0.000  0.00  0.00    +0.000 A 
ENDROOT
BRANCH   1  11
ATOM     11  C   UNL     1      -2.272  -0.028   0.000  0.00  0.00    +0.000 C 
ATOM     12  F   UNL     1      -2.986  -0.440   0.000  0.00  0.00    +0.000 F 
ATOM     13  F   UNL     1      -1.859  -0.742   0.000  0.00  0.00    +0.000 F 
ATOM     14  F   UNL     1      -2.684   0.687   0.000  0.00  0.00    +0.000 F 
ENDBRANCH   1  11
BRANCH   2  15
ATOM     15  O   UNL     1      -2.272   1.622   0.000  0.00  0.00    +0.000 OA
ATOM     16  C   UNL     1      -2.986   1.210   0.000  0.00  0.00    +0.000 C 
ENDBRANCH   2  15
BRANCH   6  17
ATOM     17  C   UNL     1       1.301   0.385   0.000  0.00  0.00    +0.000 C 
ATOM     18  S   UNL     1       1.301   1.210   0.000  0.00  0.00    +0.000 S 
BRANCH  17  19
ATOM     19  N   UNL     1       2.015  -0.028   0.000  0.00  0.00    +0.000 N 
ATOM     20  C   UNL     1       2.015  -0.853   0.000  0.00  0.00    +0.000 C 
BRANCH  19  21
ATOM     21  C   UNL     1       2.730   0.385   0.000  0.00  0.00    +0.000 C 
BRANCH  21  22
ATOM     22  C   UNL     1       3.444  -0.028   0.000  0.00  0.00    +0.000 C 
ATOM     23  O   UNL     1       4.159   0.385   0.000  0.00  0.00    +0.000 OA
ATOM     24  O   UNL     1       3.444  -0.853   0.000  0.00  0.00    +0.000 OA
ENDBRANCH  21  22
ENDBRANCH  19  21
ENDBRANCH  17  19
ENDBRANCH   6  17
TORSDOF 6
