REMARK  Name = TP2
REMARK  5 active torsions:
REMARK  status: ('A' for Active; 'I' for Inactive)
REMARK    1  A    between atoms: C_2  and  C_3
REMARK    2  A    between atoms: C_3  and  N_4
REMARK    3  A    between atoms: C_5  and  C_6
REMARK    4  A    between atoms: N_7  and  S_8
REMARK    5  A    between atoms: S_8  and  C_9
REMARK                            x       y       z     vdW  Elec       q    Type
REMARK                         _______ _______ _______ _____ _____    ______ ____
ROOT
ATOM      1  C   UNL     1      -0.099  -1.380   0.000  0.00  0.00    +0.000 C 
ATOM      2  N   UNL     1       0.654  -1.045   0.000  0.00  0.00    +0.000 NA
ATOM      3  C   UNL     1       1.206  -1.658   0.000  0.00  0.00    +0.000 C 
ATOM      4  C   UNL     1       0.794  -2.372   0.000  0.00  0.00    +0.000 C 
ATOM      5  C   UNL     1      -0.013  -2.201   0.000  0.00  0.00    +0.000 C 
ENDROOT
BRANCH   1   7
ATOM      6  N   UNL     1      -1.528  -1.380   0.000  0.00  0.00    +0.000 NA
ATOM      7  C   UNL     1      -0.814  -0.968   0.000  0.00  0.00    +0.000 C 
ATOM      8  O   UNL     1      -0.814  -0.143   0.000  0.00  0.00    +0.000 OA
BRANCH   6   9
ATOM      9  C   UNL     1      -2.243  -0.968   0.000  0.00  0.00    +0.000 C 
BRANCH   9  11
ATOM     10  S   UNL     1      -3.672  -0.968   0.000  0.00  0.00    +0.000 S 
ATOM     11  C   UNL     1      -2.957  -1.380   0.000  0.00  0.00    +0.000 C 
ENDBRANCH   9  11
ENDBRANCH   6   9
ENDBRANCH   1   7
BRANCH   2  12
ATOM     12  S   UNL     1       0.826  -0.238   0.000  0.00  0.00    +0.000 S 
ATOM     13  O   UNL     1       1.633  -0.409   0.000  0.00  0.00    +0.000 OA
ATOM     14  O   UNL     1       0.019  -0.066   0.000  0.00  0.00    +0.000 OA
BRANCH  12  15
ATOM     15  C   UNL     1       0.997   0.569   0.000  0.00  0.00    +0.000 A 
ATOM     16  C   UNL     1       0.384   1.121   0.000  0.00  0.00    +0.000 A 
ATOM     17  C   UNL     1       0.556   1.928   0.000  0.00  0.00    +0.000 A 
ATOM     18  C   UNL     1       1.340   2.183   0.000  0.00  0.00    +0.000 A 
ATOM     19  C   UNL     1       1.954   1.631   0.000  0.00  0.00    +0.000 A 
ATOM     20  C   UNL     1       1.782   0.824   0.000  0.00  0.00    +0.000 A 
ATOM     21  C   UNL     1       1.512   2.990   0.000  0.00  0.00    +0.000 C 
ENDBRANCH  12  15
ENDBRANCH   2  12
TORSDOF 5
