REMARK  Name = TPB
REMARK  3 active torsions:
REMARK  status: ('A' for Active; 'I' for Inactive)
REMARK    1  A    between atoms: C_1  and  N_2
REMARK    2  A    between atoms: N_13  and  C_17
REMARK    3  A    between atoms: C_20  and  C_23
REMARK                            x       y       z     vdW  Elec       q    Type
REMARK                         _______ _______ _______ _____ _____    ______ ____
ROOT
ATOM      1  N   UNL     1       1.581   0.315   0.000  0.00  0.00    +0.000 NA
ATOM      2  C   UNL     1       0.867   0.728   0.000  0.00  0.00    +0.000 A 
ATOM      3  N   UNL     1       0.152   0.315   0.000  0.00  0.00    +0.000 NA
ATOM      4  C   UNL     1      -0.562   0.728   0.000  0.00  0.00    +0.000 A 
ATOM      5  N   UNL     1      -1.277   0.315   0.000  0.00  0.00    +0.000 NA
ATOM      6  N   UNL     1      -0.562   1.553   0.000  0.00  0.00    +0.000 NA
ATOM      7  C   UNL     1       0.152   1.965   0.000  0.00  0.00    +0.000 A 
ATOM      8  C   UNL     1       0.867   1.553   0.000  0.00  0.00    +0.000 A 
ENDROOT
BRANCH   1   9
ATOM      9  C   UNL     1       1.581  -0.510   0.000  0.00  0.00    +0.000 A 
ATOM     10  C   UNL     1       2.296  -0.922   0.000  0.00  0.00    +0.000 A 
ATOM     11  C   UNL     1       3.010  -0.510   0.000  0.00  0.00    +0.000 C 
ATOM     12  C   UNL     1       2.296  -1.747   0.000  0.00  0.00    +0.000 A 
ATOM     13  C   UNL     1       1.581  -2.160   0.000  0.00  0.00    +0.000 A 
ATOM     14  C   UNL     1       0.867  -1.747   0.000  0.00  0.00    +0.000 A 
ATOM     15  C   UNL     1       0.867  -0.922   0.000  0.00  0.00    +0.000 A 
ATOM     16  C   UNL     1       0.152  -0.510   0.000  0.00  0.00    +0.000 C 
ATOM     17  C   UNL     1       1.581  -2.985   0.000  0.00  0.00    +0.000 C 
ENDBRANCH   1   9
BRANCH   5  18
ATOM     18  C   UNL     1      -1.991   0.728   0.000  0.00  0.00    +0.000 A 
ATOM     19  C   UNL     1      -2.706   0.315   0.000  0.00  0.00    +0.000 A 
ATOM     20  C   UNL     1      -3.420   0.728   0.000  0.00  0.00    +0.000 A 
ATOM     21  C   UNL     1      -3.420   1.553   0.000  0.00  0.00    +0.000 A 
ATOM     22  C   UNL     1      -2.706   1.965   0.000  0.00  0.00    +0.000 A 
ATOM     23  C   UNL     1      -1.991   1.553   0.000  0.00  0.00    +0.000 A 
BRANCH  21  24
ATOM     24  C   UNL     1      -4.135   1.965   0.000  0.00  0.00    +0.000 C 
ATOM     25  N   UNL     1      -4.849   2.378   0.000  0.00  0.00    +0.000 NA
ENDBRANCH  21  24
ENDBRANCH   5  18
TORSDOF 3
