REMARK  Name = TPD
REMARK  5 active torsions:
REMARK  status: ('A' for Active; 'I' for Inactive)
REMARK    1  A    between atoms: C_1  and  S_10
REMARK    2  A    between atoms: C_2  and  C_3
REMARK    3  A    between atoms: C_2  and  N_18
REMARK    4  A    between atoms: C_13  and  S_15
REMARK    5  A    between atoms: S_15  and  N_18
REMARK                            x       y       z     vdW  Elec       q    Type
REMARK                         _______ _______ _______ _____ _____    ______ ____
ROOT
ATOM      1  S   UNL     1      -0.016   0.209   0.000  0.00  0.00    +0.000 S 
ATOM      2  O   UNL     1       0.809   0.209   0.000  0.00  0.00    +0.000 OA
ATOM      3  O   UNL     1      -0.841   0.209   0.000  0.00  0.00    +0.000 OA
ENDROOT
BRANCH   1   7
ATOM      4  C   UNL     1      -0.429   2.304   0.000  0.00  0.00    +0.000 A 
ATOM      5  C   UNL     1       0.396   2.304   0.000  0.00  0.00    +0.000 A 
ATOM      6  C   UNL     1       0.651   1.519   0.000  0.00  0.00    +0.000 A 
ATOM      7  C   UNL     1      -0.016   1.034   0.000  0.00  0.00    +0.000 A 
ATOM      8  S   UNL     1      -0.684   1.519   0.000  0.00  0.00    +0.000 S 
BRANCH   4  12
ATOM      9  O   UNL     1      -1.399   3.639   0.000  0.00  0.00    +0.000 OA
ATOM     10  O   UNL     1      -0.246   3.456   0.000  0.00  0.00    +0.000 OA
ATOM     11  N   UNL     1      -1.581   2.486   0.000  0.00  0.00    +0.000 NA
ATOM     12  S   UNL     1      -0.914   2.971   0.000  0.00  0.00    +0.000 S 
ENDBRANCH   4  12
ENDBRANCH   1   7
BRANCH   1  13
ATOM     13  N   UNL     1      -0.016  -0.616   0.000  0.00  0.00    +0.000 NA
BRANCH  13  14
ATOM     14  C   UNL     1       0.698  -1.028   0.000  0.00  0.00    +0.000 C 
BRANCH  14  15
ATOM     15  C   UNL     1       0.698  -1.853   0.000  0.00  0.00    +0.000 A 
ATOM     16  C   UNL     1       1.366  -2.338   0.000  0.00  0.00    +0.000 A 
ATOM     17  C   UNL     1       1.111  -3.123   0.000  0.00  0.00    +0.000 A 
ATOM     18  C   UNL     1       0.286  -3.123   0.000  0.00  0.00    +0.000 A 
ATOM     19  S   UNL     1       0.031  -2.338   0.000  0.00  0.00    +0.000 S 
ENDBRANCH  14  15
ENDBRANCH  13  14
ENDBRANCH   1  13
TORSDOF 5
