REMARK  Name = TPI
REMARK  8 active torsions:
REMARK  status: ('A' for Active; 'I' for Inactive)
REMARK    1  A    between atoms: P_1  and  C_5
REMARK    2  A    between atoms: C_5  and  C_9
REMARK    3  A    between atoms: C_13  and  C_18
REMARK    4  A    between atoms: N_20  and  C_21
REMARK    5  A    between atoms: C_21  and  C_22
REMARK    6  A    between atoms: C_21  and  C_25
REMARK    7  A    between atoms: C_25  and  C_26
REMARK    8  A    between atoms: C_26  and  C_27
REMARK                            x       y       z     vdW  Elec       q    Type
REMARK                         _______ _______ _______ _____ _____    ______ ____
ROOT
ATOM      1  C   UNL     1      -2.061  -0.978   0.000  0.00  0.00    +0.000 A 
ATOM      2  C   UNL     1      -2.776  -0.565   0.000  0.00  0.00    +0.000 A 
ATOM      3  C   UNL     1      -2.776   0.260   0.000  0.00  0.00    +0.000 A 
ATOM      4  C   UNL     1      -2.061   0.672   0.000  0.00  0.00    +0.000 A 
ATOM      5  C   UNL     1      -0.632   0.672   0.000  0.00  0.00    +0.000 A 
ATOM      6  C   UNL     1       0.082   0.260   0.000  0.00  0.00    +0.000 A 
ATOM      7  C   UNL     1       0.082  -0.565   0.000  0.00  0.00    +0.000 A 
ATOM      8  C   UNL     1      -0.632  -0.978   0.000  0.00  0.00    +0.000 A 
ATOM      9  C   UNL     1      -1.347  -0.565   0.000  0.00  0.00    +0.000 A 
ATOM     10  C   UNL     1      -1.347   0.260   0.000  0.00  0.00    +0.000 A 
ENDROOT
BRANCH   2  11
ATOM     11  C   UNL     1      -3.490  -0.978   0.000  0.00  0.00    +0.000 C 
ATOM     12  F   UNL     1      -3.077  -1.692   0.000  0.00  0.00    +0.000 F 
ATOM     13  F   UNL     1      -3.902  -0.263   0.000  0.00  0.00    +0.000 F 
BRANCH  11  14
ATOM     14  P   UNL     1      -4.204  -1.390   0.000  0.00  0.00    +0.000 P 
ATOM     15  O   UNL     1      -4.919  -1.803   0.000  0.00  0.00    +0.000 OA
ATOM     16  O   UNL     1      -3.792  -2.105   0.000  0.00  0.00    +0.000 OA
ATOM     17  O   UNL     1      -4.617  -0.676   0.000  0.00  0.00    +0.000 OA
ENDBRANCH  11  14
ENDBRANCH   2  11
BRANCH   6  18
ATOM     18  C   UNL     1       0.797   0.672   0.000  0.00  0.00    +0.000 C 
ATOM     19  O   UNL     1       0.797   1.497   0.000  0.00  0.00    +0.000 OA
ATOM     20  N   UNL     1       1.511   0.260   0.000  0.00  0.00    +0.000 NA
BRANCH  20  21
ATOM     21  C   UNL     1       2.226   0.672   0.000  0.00  0.00    +0.000 C 
BRANCH  21  22
ATOM     22  C   UNL     1       2.226   1.497   0.000  0.00  0.00    +0.000 C 
ATOM     23  N   UNL     1       2.940   1.910   0.000  0.00  0.00    +0.000 NA
ATOM     24  O   UNL     1       1.511   1.910   0.000  0.00  0.00    +0.000 OA
ENDBRANCH  21  22
BRANCH  21  25
ATOM     25  C   UNL     1       2.940   0.260   0.000  0.00  0.00    +0.000 C 
BRANCH  25  26
ATOM     26  C   UNL     1       3.655   0.672   0.000  0.00  0.00    +0.000 C 
BRANCH  26  27
ATOM     27  C   UNL     1       4.369   0.260   0.000  0.00  0.00    +0.000 C 
ATOM     28  O   UNL     1       5.084   0.672   0.000  0.00  0.00    +0.000 OA
ATOM     29  O   UNL     1       4.369  -0.565   0.000  0.00  0.00    +0.000 OA
ENDBRANCH  26  27
ENDBRANCH  25  26
ENDBRANCH  21  25
ENDBRANCH  20  21
ENDBRANCH   6  18
TORSDOF 8
