REMARK  Name = TPR
REMARK  3 active torsions:
REMARK  status: ('A' for Active; 'I' for Inactive)
REMARK    1  A    between atoms: C_5  and  S_8
REMARK    2  A    between atoms: S_8  and  N_11
REMARK    3  A    between atoms: C_15  and  C_16
REMARK                            x       y       z     vdW  Elec       q    Type
REMARK                         _______ _______ _______ _____ _____    ______ ____
ROOT
ATOM      1  S   UNL     1       0.061  -0.403   0.000  0.00  0.00    +0.000 S 
ATOM      2  O   UNL     1      -0.194   0.382   0.000  0.00  0.00    +0.000 OA
ATOM      3  O   UNL     1       0.316  -1.187   0.000  0.00  0.00    +0.000 OA
ENDROOT
BRANCH   1   8
ATOM      4  C   UNL     1       1.801   0.914   0.000  0.00  0.00    +0.000 A 
ATOM      5  C   UNL     1       2.414   0.362   0.000  0.00  0.00    +0.000 A 
ATOM      6  C   UNL     1       2.243  -0.445   0.000  0.00  0.00    +0.000 A 
ATOM      7  C   UNL     1       1.458  -0.700   0.000  0.00  0.00    +0.000 A 
ATOM      8  C   UNL     1       0.845  -0.148   0.000  0.00  0.00    +0.000 A 
ATOM      9  C   UNL     1       1.017   0.659   0.000  0.00  0.00    +0.000 A 
ATOM     10  C   UNL     1       3.199   0.617   0.000  0.00  0.00    +0.000 C 
ENDBRANCH   1   8
BRANCH   1  11
ATOM     11  N   UNL     1      -0.724  -0.658   0.000  0.00  0.00    +0.000 NA
ATOM     12  C   UNL     1      -0.979  -1.442   0.000  0.00  0.00    +0.000 C 
ATOM     13  C   UNL     1      -1.804  -1.442   0.000  0.00  0.00    +0.000 C 
ATOM     14  C   UNL     1      -2.059  -0.658   0.000  0.00  0.00    +0.000 C 
ATOM     15  C   UNL     1      -1.391  -0.173   0.000  0.00  0.00    +0.000 C 
BRANCH  15  16
ATOM     16  C   UNL     1      -1.391   0.652   0.000  0.00  0.00    +0.000 C 
ATOM     17  O   UNL     1      -2.106   1.065   0.000  0.00  0.00    +0.000 OA
ATOM     18  O   UNL     1      -0.677   1.065   0.000  0.00  0.00    +0.000 OA
ENDBRANCH  15  16
ENDBRANCH   1  11
TORSDOF 3
