REMARK  Name = TPX
REMARK  8 active torsions:
REMARK  status: ('A' for Active; 'I' for Inactive)
REMARK    1  A    between atoms: C_1  and  C_2
REMARK    2  A    between atoms: C_2  and  C_3
REMARK    3  A    between atoms: C_2  and  C_5
REMARK    4  A    between atoms: C_3  and  C_4
REMARK    5  A    between atoms: C_3  and  C_10
REMARK    6  A    between atoms: C_10  and  N_11
REMARK    7  A    between atoms: N_11  and  S_14
REMARK    8  A    between atoms: S_14  and  C_15
REMARK                            x       y       z     vdW  Elec       q    Type
REMARK                         _______ _______ _______ _____ _____    ______ ____
ROOT
ATOM      1  N   UNL     1       0.127  -0.702   0.000  0.00  0.00    +0.000 NA
ENDROOT
BRANCH   1   4
ATOM      2  O   UNL     1      -0.175   0.425   0.000  0.00  0.00    +0.000 OA
ATOM      3  O   UNL     1      -1.000  -1.004   0.000  0.00  0.00    +0.000 OA
ATOM      4  S   UNL     1      -0.588  -0.290   0.000  0.00  0.00    +0.000 S 
BRANCH   4   5
ATOM      5  C   UNL     1      -1.302   0.123   0.000  0.00  0.00    +0.000 A 
ATOM      6  C   UNL     1      -2.017  -0.290   0.000  0.00  0.00    +0.000 A 
ATOM      7  C   UNL     1      -1.302   0.948   0.000  0.00  0.00    +0.000 A 
ATOM      8  C   UNL     1      -2.731   0.123   0.000  0.00  0.00    +0.000 A 
ATOM      9  C   UNL     1      -2.017   1.360   0.000  0.00  0.00    +0.000 A 
ATOM     10  C   UNL     1      -2.731   0.948   0.000  0.00  0.00    +0.000 A 
ATOM     11  C   UNL     1      -3.445   1.360   0.000  0.00  0.00    +0.000 C 
ENDBRANCH   4   5
ENDBRANCH   1   4
BRANCH   1  12
ATOM     12  C   UNL     1       0.841  -0.290   0.000  0.00  0.00    +0.000 C 
BRANCH  12  13
ATOM     13  C   UNL     1       1.556  -0.702   0.000  0.00  0.00    +0.000 C 
BRANCH  13  14
ATOM     14  C   UNL     1       1.556  -1.527   0.000  0.00  0.00    +0.000 C 
ATOM     15  O   UNL     1       0.841  -1.940   0.000  0.00  0.00    +0.000 OA
ATOM     16  O   UNL     1       2.270  -1.940   0.000  0.00  0.00    +0.000 OA
ENDBRANCH  13  14
BRANCH  13  17
ATOM     17  C   UNL     1       2.270  -0.290   0.000  0.00  0.00    +0.000 C 
BRANCH  17  18
ATOM     18  C   UNL     1       2.270   0.535   0.000  0.00  0.00    +0.000 C 
ATOM     19  O   UNL     1       2.985   0.948   0.000  0.00  0.00    +0.000 OA
ENDBRANCH  17  18
BRANCH  17  20
ATOM     20  C   UNL     1       2.985  -0.702   0.000  0.00  0.00    +0.000 C 
ATOM     21  C   UNL     1       3.699  -0.290   0.000  0.00  0.00    +0.000 C 
ENDBRANCH  17  20
ENDBRANCH  13  17
ENDBRANCH  12  13
ENDBRANCH   1  12
TORSDOF 8
