REMARK  Name = TPY
REMARK  9 active torsions:
REMARK  status: ('A' for Active; 'I' for Inactive)
REMARK    1  A    between atoms: C_1  and  C_2
REMARK    2  A    between atoms: C_2  and  C_3
REMARK    3  A    between atoms: C_2  and  C_5
REMARK    4  A    between atoms: C_3  and  C_4
REMARK    5  A    between atoms: C_3  and  C_14
REMARK    6  A    between atoms: S_12  and  N_13
REMARK    7  A    between atoms: S_12  and  C_15
REMARK    8  A    between atoms: N_13  and  C_14
REMARK    9  A    between atoms: C_20  and  N_21
REMARK                            x       y       z     vdW  Elec       q    Type
REMARK                         _______ _______ _______ _____ _____    ______ ____
ROOT
ATOM      1  O   UNL     1      -0.079   0.652   0.000  0.00  0.00    +0.000 OA
ATOM      2  O   UNL     1      -0.904  -0.777   0.000  0.00  0.00    +0.000 OA
ATOM      3  S   UNL     1      -0.492  -0.062   0.000  0.00  0.00    +0.000 S 
ENDROOT
BRANCH   3   4
ATOM      4  C   UNL     1      -1.206   0.350   0.000  0.00  0.00    +0.000 A 
ATOM      5  C   UNL     1      -1.921  -0.062   0.000  0.00  0.00    +0.000 A 
ATOM      6  C   UNL     1      -1.206   1.175   0.000  0.00  0.00    +0.000 A 
ATOM      7  C   UNL     1      -2.635   0.350   0.000  0.00  0.00    +0.000 A 
ATOM      8  C   UNL     1      -1.921   1.587   0.000  0.00  0.00    +0.000 A 
ATOM      9  C   UNL     1      -2.635   1.175   0.000  0.00  0.00    +0.000 A 
BRANCH   9  10
ATOM     10  N   UNL     1      -3.350   1.587   0.000  0.00  0.00    +0.000 N 
ATOM     11  O   UNL     1      -4.064   1.175   0.000  0.00  0.00    +0.000 OA
ATOM     12  O   UNL     1      -3.350   2.413   0.000  0.00  0.00    +0.000 OA
ENDBRANCH   9  10
ENDBRANCH   3   4
BRANCH   3  13
ATOM     13  N   UNL     1       0.223  -0.475   0.000  0.00  0.00    +0.000 NA
BRANCH  13  14
ATOM     14  C   UNL     1       0.937  -0.062   0.000  0.00  0.00    +0.000 C 
BRANCH  14  15
ATOM     15  C   UNL     1       1.651  -0.475   0.000  0.00  0.00    +0.000 C 
BRANCH  15  16
ATOM     16  C   UNL     1       1.651  -1.300   0.000  0.00  0.00    +0.000 C 
ATOM     17  O   UNL     1       0.937  -1.712   0.000  0.00  0.00    +0.000 OA
ATOM     18  O   UNL     1       2.366  -1.712   0.000  0.00  0.00    +0.000 OA
ENDBRANCH  15  16
BRANCH  15  19
ATOM     19  C   UNL     1       2.366  -0.062   0.000  0.00  0.00    +0.000 C 
BRANCH  19  20
ATOM     20  C   UNL     1       2.366   0.762   0.000  0.00  0.00    +0.000 C 
ATOM     21  O   UNL     1       3.080   1.175   0.000  0.00  0.00    +0.000 OA
ENDBRANCH  19  20
BRANCH  19  22
ATOM     22  C   UNL     1       3.080  -0.475   0.000  0.00  0.00    +0.000 C 
ATOM     23  C   UNL     1       3.795  -0.062   0.000  0.00  0.00    +0.000 C 
ENDBRANCH  19  22
ENDBRANCH  15  19
ENDBRANCH  14  15
ENDBRANCH  13  14
ENDBRANCH   3  13
TORSDOF 9
