REMARK  Name = TQ3
REMARK  2 active torsions:
REMARK  status: ('A' for Active; 'I' for Inactive)
REMARK    1  A    between atoms: C_11  and  S_13
REMARK    2  A    between atoms: S_13  and  C_14
REMARK                            x       y       z     vdW  Elec       q    Type
REMARK                         _______ _______ _______ _____ _____    ______ ____
ROOT
ATOM      1  C   UNL     1      -0.776  -1.401   0.000  0.00  0.00    +0.000 A 
ATOM      2  C   UNL     1      -0.776  -0.576   0.000  0.00  0.00    +0.000 A 
ATOM      3  C   UNL     1      -1.490  -0.163   0.000  0.00  0.00    +0.000 A 
ATOM      4  N   UNL     1      -2.205  -0.576   0.000  0.00  0.00    +0.000 NA
ATOM      5  C   UNL     1      -2.205  -1.401   0.000  0.00  0.00    +0.000 A 
ATOM      6  N   UNL     1      -1.490  -1.813   0.000  0.00  0.00    +0.000 NA
ATOM      7  N   UNL     1      -1.490   0.662   0.000  0.00  0.00    +0.000 NA
ATOM      8  C   UNL     1      -0.061  -1.813   0.000  0.00  0.00    +0.000 A 
ATOM      9  C   UNL     1       0.653  -1.401   0.000  0.00  0.00    +0.000 A 
ATOM     10  C   UNL     1       0.653  -0.576   0.000  0.00  0.00    +0.000 A 
ATOM     11  C   UNL     1      -0.061  -0.163   0.000  0.00  0.00    +0.000 A 
ATOM     12  N   UNL     1      -2.919  -1.813   0.000  0.00  0.00    +0.000 NA
ENDROOT
BRANCH  11  13
ATOM     13  S   UNL     1      -0.061   0.662   0.000  0.00  0.00    +0.000 S 
BRANCH  13  14
ATOM     14  C   UNL     1       0.653   1.074   0.000  0.00  0.00    +0.000 A 
ATOM     15  C   UNL     1       0.653   1.899   0.000  0.00  0.00    +0.000 A 
ATOM     16  C   UNL     1       1.368   2.312   0.000  0.00  0.00    +0.000 A 
ATOM     17  C   UNL     1       2.082   1.899   0.000  0.00  0.00    +0.000 A 
ATOM     18  C   UNL     1       2.082   1.074   0.000  0.00  0.00    +0.000 A 
ATOM     19  C   UNL     1       1.368   0.662   0.000  0.00  0.00    +0.000 A 
ENDBRANCH  13  14
ENDBRANCH  11  13
TORSDOF 2
