REMARK  Name = TQ4
REMARK  2 active torsions:
REMARK  status: ('A' for Active; 'I' for Inactive)
REMARK    1  A    between atoms: C_11  and  S_13
REMARK    2  A    between atoms: S_13  and  C_14
REMARK                            x       y       z     vdW  Elec       q    Type
REMARK                         _______ _______ _______ _____ _____    ______ ____
ROOT
ATOM      1  C   UNL     1      -1.065  -1.636   0.000  0.00  0.00    +0.000 A 
ATOM      2  C   UNL     1      -1.065  -0.811   0.000  0.00  0.00    +0.000 A 
ATOM      3  C   UNL     1      -1.779  -0.399   0.000  0.00  0.00    +0.000 A 
ATOM      4  N   UNL     1      -2.494  -0.811   0.000  0.00  0.00    +0.000 NA
ATOM      5  C   UNL     1      -2.494  -1.636   0.000  0.00  0.00    +0.000 A 
ATOM      6  N   UNL     1      -1.779  -2.049   0.000  0.00  0.00    +0.000 NA
ATOM      7  N   UNL     1      -1.779   0.426   0.000  0.00  0.00    +0.000 NA
ATOM      8  C   UNL     1      -0.350  -2.049   0.000  0.00  0.00    +0.000 A 
ATOM      9  C   UNL     1       0.364  -1.636   0.000  0.00  0.00    +0.000 A 
ATOM     10  C   UNL     1       0.364  -0.811   0.000  0.00  0.00    +0.000 A 
ATOM     11  C   UNL     1      -0.350  -0.399   0.000  0.00  0.00    +0.000 A 
ATOM     12  N   UNL     1      -3.208  -2.049   0.000  0.00  0.00    +0.000 NA
ENDROOT
BRANCH  11  13
ATOM     13  S   UNL     1      -0.350   0.426   0.000  0.00  0.00    +0.000 S 
BRANCH  13  14
ATOM     14  C   UNL     1       0.364   0.839   0.000  0.00  0.00    +0.000 A 
ATOM     15  C   UNL     1       0.364   1.664   0.000  0.00  0.00    +0.000 A 
ATOM     16  C   UNL     1       1.079   2.076   0.000  0.00  0.00    +0.000 A 
ATOM     17  C   UNL     1       1.793   1.664   0.000  0.00  0.00    +0.000 A 
ATOM     18  C   UNL     1       1.793   0.839   0.000  0.00  0.00    +0.000 A 
ATOM     19  C   UNL     1       1.079   0.426   0.000  0.00  0.00    +0.000 A 
ATOM     20  C   UNL     1       2.508   2.076   0.000  0.00  0.00    +0.000 C 
ENDBRANCH  13  14
ENDBRANCH  11  13
TORSDOF 2
