REMARK  Name = TQ5
REMARK  3 active torsions:
REMARK  status: ('A' for Active; 'I' for Inactive)
REMARK    1  A    between atoms: C_11  and  S_13
REMARK    2  A    between atoms: S_13  and  C_14
REMARK    3  A    between atoms: C_17  and  C_20
REMARK                            x       y       z     vdW  Elec       q    Type
REMARK                         _______ _______ _______ _____ _____    ______ ____
ROOT
ATOM      1  C   UNL     1      -1.676  -2.112   0.000  0.00  0.00    +0.000 A 
ATOM      2  C   UNL     1      -1.676  -1.287   0.000  0.00  0.00    +0.000 A 
ATOM      3  C   UNL     1      -2.391  -0.874   0.000  0.00  0.00    +0.000 A 
ATOM      4  N   UNL     1      -3.105  -1.287   0.000  0.00  0.00    +0.000 NA
ATOM      5  C   UNL     1      -3.105  -2.112   0.000  0.00  0.00    +0.000 A 
ATOM      6  N   UNL     1      -2.391  -2.524   0.000  0.00  0.00    +0.000 NA
ATOM      7  N   UNL     1      -2.391  -0.049   0.000  0.00  0.00    +0.000 NA
ATOM      8  C   UNL     1      -0.962  -2.524   0.000  0.00  0.00    +0.000 A 
ATOM      9  C   UNL     1      -0.247  -2.112   0.000  0.00  0.00    +0.000 A 
ATOM     10  C   UNL     1      -0.247  -1.287   0.000  0.00  0.00    +0.000 A 
ATOM     11  C   UNL     1      -0.962  -0.874   0.000  0.00  0.00    +0.000 A 
ATOM     12  N   UNL     1      -3.820  -2.524   0.000  0.00  0.00    +0.000 NA
ENDROOT
BRANCH  11  13
ATOM     13  S   UNL     1      -0.962  -0.049   0.000  0.00  0.00    +0.000 S 
BRANCH  13  14
ATOM     14  C   UNL     1      -0.247   0.363   0.000  0.00  0.00    +0.000 A 
ATOM     15  C   UNL     1      -0.247   1.188   0.000  0.00  0.00    +0.000 A 
ATOM     16  C   UNL     1       0.467   1.601   0.000  0.00  0.00    +0.000 A 
ATOM     17  C   UNL     1       1.181   1.188   0.000  0.00  0.00    +0.000 A 
ATOM     18  C   UNL     1       1.181   0.363   0.000  0.00  0.00    +0.000 A 
ATOM     19  C   UNL     1       0.467  -0.049   0.000  0.00  0.00    +0.000 A 
BRANCH  17  20
ATOM     20  C   UNL     1       1.896   1.601   0.000  0.00  0.00    +0.000 C 
ATOM     21  C   UNL     1       2.610   2.013   0.000  0.00  0.00    +0.000 C 
ATOM     22  C   UNL     1       2.308   0.886   0.000  0.00  0.00    +0.000 C 
ATOM     23  C   UNL     1       1.483   2.315   0.000  0.00  0.00    +0.000 C 
ENDBRANCH  17  20
ENDBRANCH  13  14
ENDBRANCH  11  13
TORSDOF 3
