REMARK  Name = TQT
REMARK  2 active torsions:
REMARK  status: ('A' for Active; 'I' for Inactive)
REMARK    1  A    between atoms: C_4  and  C_7
REMARK    2  A    between atoms: C_7  and  N_22
REMARK                            x       y       z     vdW  Elec       q    Type
REMARK                         _______ _______ _______ _____ _____    ______ ____
ROOT
ATOM      1  C   UNL     1       0.764   2.803   0.000  0.00  0.00    +0.000 C 
ATOM      2  C   UNL     1      -0.595   2.362   0.000  0.00  0.00    +0.000 C 
ATOM      3  C   UNL     1      -0.340   1.577   0.000  0.00  0.00    +0.000 C 
ATOM      4  C   UNL     1      -0.637   0.179   0.000  0.00  0.00    +0.000 C 
ATOM      5  C   UNL     1       0.170   0.008   0.000  0.00  0.00    +0.000 C 
ATOM      6  C   UNL     1       0.467   1.405   0.000  0.00  0.00    +0.000 C 
ATOM      7  N   UNL     1       1.019   2.018   0.000  0.00  0.00    +0.000 NA
ATOM      8  N   UNL     1       1.316   3.416   0.000  0.00  0.00    +0.000 NA
ATOM      9  N   UNL     1      -0.043   2.975   0.000  0.00  0.00    +0.000 NA
ATOM     10  N   UNL     1      -1.402   2.533   0.000  0.00  0.00    +0.000 NA
ATOM     11  C   UNL     1      -0.892   0.964   0.000  0.00  0.00    +0.000 C 
ATOM     12  C   UNL     1       0.722   0.621   0.000  0.00  0.00    +0.000 C 
ENDROOT
BRANCH   4  13
ATOM     13  C   UNL     1      -1.190  -0.434   0.000  0.00  0.00    +0.000 C 
BRANCH  13  22
ATOM     14  C   UNL     1      -1.419  -1.886   0.000  0.00  0.00    +0.000 C 
ATOM     15  C   UNL     1      -0.150  -1.473   0.000  0.00  0.00    +0.000 C 
ATOM     16  C   UNL     1       0.565  -1.061   0.000  0.00  0.00    +0.000 C 
ATOM     17  C   UNL     1       1.279  -1.473   0.000  0.00  0.00    +0.000 C 
ATOM     18  C   UNL     1       1.279  -2.298   0.000  0.00  0.00    +0.000 C 
ATOM     19  C   UNL     1       0.565  -2.711   0.000  0.00  0.00    +0.000 C 
ATOM     20  C   UNL     1      -0.150  -2.298   0.000  0.00  0.00    +0.000 C 
ATOM     21  C   UNL     1      -0.935  -2.553   0.000  0.00  0.00    +0.000 C 
ATOM     22  N   UNL     1      -0.935  -1.218   0.000  0.00  0.00    +0.000 NA
ENDBRANCH  13  22
ENDBRANCH   4  13
TORSDOF 2
