REMARK  Name = TR1
REMARK  12 active torsions:
REMARK  status: ('A' for Active; 'I' for Inactive)
REMARK    1  A    between atoms: N_1  and  C_2
REMARK    2  A    between atoms: N_1  and  C_17
REMARK    3  A    between atoms: C_2  and  C_3
REMARK    4  A    between atoms: C_2  and  C_18
REMARK    5  A    between atoms: C_5  and  C_16
REMARK    6  A    between atoms: C_11  and  C_17
REMARK    7  A    between atoms: N_20  and  C_21
REMARK    8  A    between atoms: C_21  and  C_22
REMARK    9  A    between atoms: N_24  and  C_25
REMARK   10  A    between atoms: C_25  and  C_26
REMARK   11  A    between atoms: C_25  and  C_29
REMARK   12  A    between atoms: C_29  and  O_31
REMARK                            x       y       z     vdW  Elec       q    Type
REMARK                         _______ _______ _______ _____ _____    ______ ____
ROOT
ATOM      1  C   UNL     1       0.496   0.291   0.000  0.00  0.00    +0.000 C 
ENDROOT
BRANCH   1   2
ATOM      2  C   UNL     1      -0.218  -0.122   0.000  0.00  0.00    +0.000 C 
ATOM      3  O   UNL     1      -0.218  -0.947   0.000  0.00  0.00    +0.000 OA
ATOM      4  N   UNL     1      -0.933   0.291   0.000  0.00  0.00    +0.000 NA
BRANCH   4   5
ATOM      5  C   UNL     1      -1.647  -0.122   0.000  0.00  0.00    +0.000 C 
BRANCH   5   6
ATOM      6  C   UNL     1      -2.362   0.291   0.000  0.00  0.00    +0.000 C 
ATOM      7  O   UNL     1      -2.362   1.116   0.000  0.00  0.00    +0.000 OA
ATOM      8  N   UNL     1      -3.076  -0.122   0.000  0.00  0.00    +0.000 NA
BRANCH   8   9
ATOM      9  C   UNL     1      -3.791   0.291   0.000  0.00  0.00    +0.000 C 
BRANCH   9  10
ATOM     10  C   UNL     1      -3.791   1.116   0.000  0.00  0.00    +0.000 C 
ATOM     11  C   UNL     1      -4.505   1.528   0.000  0.00  0.00    +0.000 C 
ATOM     12  C   UNL     1      -3.076   1.528   0.000  0.00  0.00    +0.000 C 
ENDBRANCH   9  10
BRANCH   9  13
ATOM     13  C   UNL     1      -4.505  -0.122   0.000  0.00  0.00    +0.000 C 
ATOM     14  O   UNL     1      -4.505  -0.947   0.000  0.00  0.00    +0.000 OA
BRANCH  13  15
ATOM     15  O   UNL     1      -5.220   0.291   0.000  0.00  0.00    +0.000 OA
ATOM     16  C   UNL     1      -5.934  -0.122   0.000  0.00  0.00    +0.000 C 
ENDBRANCH  13  15
ENDBRANCH   9  13
ENDBRANCH   8   9
ENDBRANCH   5   6
ENDBRANCH   4   5
ENDBRANCH   1   2
BRANCH   1  17
ATOM     17  C   UNL     1       0.496   1.116   0.000  0.00  0.00    +0.000 C 
ATOM     18  S   UNL     1      -0.218   1.528   0.000  0.00  0.00    +0.000 S 
ENDBRANCH   1  17
BRANCH   1  19
ATOM     19  N   UNL     1       1.211  -0.122   0.000  0.00  0.00    +0.000 NA
BRANCH  19  20
ATOM     20  C   UNL     1       1.925   0.291   0.000  0.00  0.00    +0.000 C 
BRANCH  20  21
ATOM     21  C   UNL     1       2.639  -0.122   0.000  0.00  0.00    +0.000 A 
ATOM     22  C   UNL     1       3.354   0.291   0.000  0.00  0.00    +0.000 A 
ATOM     23  C   UNL     1       2.639  -0.947   0.000  0.00  0.00    +0.000 A 
ATOM     24  C   UNL     1       4.068  -0.122   0.000  0.00  0.00    +0.000 A 
ATOM     25  C   UNL     1       3.354  -1.359   0.000  0.00  0.00    +0.000 A 
ATOM     26  C   UNL     1       4.068  -0.947   0.000  0.00  0.00    +0.000 A 
BRANCH  26  27
ATOM     27  C   UNL     1       4.783  -1.359   0.000  0.00  0.00    +0.000 A 
ATOM     28  C   UNL     1       5.497  -0.947   0.000  0.00  0.00    +0.000 A 
ATOM     29  C   UNL     1       4.783  -2.184   0.000  0.00  0.00    +0.000 A 
ATOM     30  C   UNL     1       6.212  -1.359   0.000  0.00  0.00    +0.000 A 
ATOM     31  C   UNL     1       5.497  -2.597   0.000  0.00  0.00    +0.000 A 
ATOM     32  C   UNL     1       6.212  -2.184   0.000  0.00  0.00    +0.000 A 
ENDBRANCH  26  27
ENDBRANCH  20  21
ENDBRANCH  19  20
ENDBRANCH   1  19
TORSDOF 12
