REMARK  Name = TRL
REMARK  10 active torsions:
REMARK  status: ('A' for Active; 'I' for Inactive)
REMARK    1  A    between atoms: C_2  and  C_3
REMARK    2  A    between atoms: C_3  and  C_4
REMARK    3  A    between atoms: C_3  and  C_6
REMARK    4  A    between atoms: C_10  and  N_11
REMARK    5  A    between atoms: N_11  and  S_12
REMARK    6  A    between atoms: C_16  and  C_18
REMARK    7  A    between atoms: C_18  and  C_19
REMARK    8  A    between atoms: C_18  and  N_22
REMARK    9  A    between atoms: C_23  and  O_25
REMARK   10  A    between atoms: O_25  and  C_26
REMARK                            x       y       z     vdW  Elec       q    Type
REMARK                         _______ _______ _______ _____ _____    ______ ____
ROOT
ATOM      1  C   UNL     1      -1.050  -0.731   0.000  0.00  0.00    +0.000 C 
ATOM      2  N   UNL     1      -0.382  -0.246   0.000  0.00  0.00    +0.000 N 
ATOM      3  C   UNL     1       0.285  -0.731   0.000  0.00  0.00    +0.000 C 
ATOM      4  C   UNL     1       0.030  -1.516   0.000  0.00  0.00    +0.000 C 
ATOM      5  C   UNL     1      -0.795  -1.516   0.000  0.00  0.00    +0.000 C 
ATOM      6  C   UNL     1      -0.382   0.579   0.000  0.00  0.00    +0.000 C 
ATOM      7  O   UNL     1      -1.097   0.991   0.000  0.00  0.00    +0.000 OA
ENDROOT
BRANCH   1   8
ATOM      8  C   UNL     1      -1.834  -0.476   0.000  0.00  0.00    +0.000 C 
BRANCH   8  10
ATOM      9  O   UNL     1      -2.790   0.586   0.000  0.00  0.00    +0.000 OA
ATOM     10  C   UNL     1      -2.006   0.331   0.000  0.00  0.00    +0.000 C 
ENDBRANCH   8  10
BRANCH   8  11
ATOM     11  C   UNL     1      -2.447  -1.028   0.000  0.00  0.00    +0.000 C 
ATOM     12  C   UNL     1      -3.232  -0.773   0.000  0.00  0.00    +0.000 C 
ENDBRANCH   8  11
ENDBRANCH   1   8
BRANCH   5  13
ATOM     13  N   UNL     1      -1.280  -2.183   0.000  0.00  0.00    +0.000 NA
BRANCH  13  14
ATOM     14  S   UNL     1      -0.944  -2.937   0.000  0.00  0.00    +0.000 S 
ATOM     15  O   UNL     1      -0.608  -3.691   0.000  0.00  0.00    +0.000 OA
ATOM     16  O   UNL     1      -0.190  -2.601   0.000  0.00  0.00    +0.000 OA
ATOM     17  C   UNL     1      -1.698  -3.272   0.000  0.00  0.00    +0.000 C 
ENDBRANCH  13  14
ENDBRANCH   5  13
BRANCH   6  18
ATOM     18  C   UNL     1       0.332   0.991   0.000  0.00  0.00    +0.000 C 
BRANCH  18  19
ATOM     19  N   UNL     1       1.047   0.579   0.000  0.00  0.00    +0.000 NA
ATOM     20  C   UNL     1       1.761   0.991   0.000  0.00  0.00    +0.000 C 
ATOM     21  O   UNL     1       1.761   1.816   0.000  0.00  0.00    +0.000 OA
BRANCH  20  22
ATOM     22  O   UNL     1       2.476   0.579   0.000  0.00  0.00    +0.000 OA
BRANCH  22  23
ATOM     23  C   UNL     1       3.190   0.991   0.000  0.00  0.00    +0.000 C 
ATOM     24  C   UNL     1       3.905   1.404   0.000  0.00  0.00    +0.000 C 
ATOM     25  C   UNL     1       3.603   0.277   0.000  0.00  0.00    +0.000 C 
ATOM     26  C   UNL     1       2.778   1.706   0.000  0.00  0.00    +0.000 C 
ENDBRANCH  22  23
ENDBRANCH  20  22
ENDBRANCH  18  19
BRANCH  18  27
ATOM     27  C   UNL     1       0.332   1.816   0.000  0.00  0.00    +0.000 C 
ATOM     28  C   UNL     1      -0.382   2.229   0.000  0.00  0.00    +0.000 C 
ATOM     29  C   UNL     1       1.047   2.229   0.000  0.00  0.00    +0.000 C 
ENDBRANCH  18  27
ENDBRANCH   6  18
TORSDOF 10
