REMARK  Name = TRR
REMARK  5 active torsions:
REMARK  status: ('A' for Active; 'I' for Inactive)
REMARK    1  A    between atoms: C_7  and  C_9
REMARK    2  A    between atoms: C_9  and  C_10
REMARK    3  A    between atoms: C_12  and  O_16
REMARK    4  A    between atoms: C_13  and  O_17
REMARK    5  A    between atoms: C_14  and  O_18
REMARK                            x       y       z     vdW  Elec       q    Type
REMARK                         _______ _______ _______ _____ _____    ______ ____
ROOT
ATOM      1  C   UNL     1      -0.049  -0.527   0.000  0.00  0.00    +0.000 A 
ATOM      2  C   UNL     1      -0.763  -0.940   0.000  0.00  0.00    +0.000 A 
ATOM      3  C   UNL     1      -1.478  -0.527   0.000  0.00  0.00    +0.000 A 
ATOM      4  C   UNL     1      -1.478   0.298   0.000  0.00  0.00    +0.000 A 
ATOM      5  C   UNL     1      -0.763   0.711   0.000  0.00  0.00    +0.000 A 
ATOM      6  C   UNL     1      -0.049   0.298   0.000  0.00  0.00    +0.000 A 
ENDROOT
BRANCH   3   7
ATOM      7  O   UNL     1      -2.192  -0.940   0.000  0.00  0.00    +0.000 OA
ATOM      8  C   UNL     1      -2.907  -0.527   0.000  0.00  0.00    +0.000 C 
ENDBRANCH   3   7
BRANCH   4   9
ATOM      9  O   UNL     1      -2.192   0.711   0.000  0.00  0.00    +0.000 OA
ATOM     10  C   UNL     1      -2.907   0.298   0.000  0.00  0.00    +0.000 C 
ENDBRANCH   4   9
BRANCH   5  11
ATOM     11  O   UNL     1      -0.763   1.536   0.000  0.00  0.00    +0.000 OA
ATOM     12  C   UNL     1      -0.049   1.948   0.000  0.00  0.00    +0.000 C 
ENDBRANCH   5  11
BRANCH   1  13
ATOM     13  C   UNL     1       0.666  -0.940   0.000  0.00  0.00    +0.000 C 
BRANCH  13  20
ATOM     14  N   UNL     1       2.095   0.711   0.000  0.00  0.00    +0.000 NA
ATOM     15  C   UNL     1       2.809   0.298   0.000  0.00  0.00    +0.000 A 
ATOM     16  N   UNL     1       3.524   0.711   0.000  0.00  0.00    +0.000 NA
ATOM     17  N   UNL     1       2.809  -0.527   0.000  0.00  0.00    +0.000 NA
ATOM     18  C   UNL     1       2.095  -0.940   0.000  0.00  0.00    +0.000 A 
ATOM     19  N   UNL     1       2.095  -1.764   0.000  0.00  0.00    +0.000 NA
ATOM     20  C   UNL     1       1.380  -0.527   0.000  0.00  0.00    +0.000 A 
ATOM     21  C   UNL     1       1.380   0.298   0.000  0.00  0.00    +0.000 A 
ENDBRANCH  13  20
ENDBRANCH   1  13
TORSDOF 5
