REMARK  Name = TRT
REMARK  13 active torsions:
REMARK  status: ('A' for Active; 'I' for Inactive)
REMARK    1  A    between atoms: O_2  and  C_3
REMARK    2  A    between atoms: C_3  and  C_4
REMARK    3  A    between atoms: C_4  and  O_5
REMARK    4  A    between atoms: O_5  and  C_6
REMARK    5  A    between atoms: C_6  and  C_7
REMARK    6  A    between atoms: C_7  and  O_8
REMARK    7  A    between atoms: O_8  and  C_9
REMARK    8  A    between atoms: C_9  and  C_10
REMARK    9  A    between atoms: C_10  and  O_11
REMARK   10  A    between atoms: O_11  and  C_12
REMARK   11  A    between atoms: C_17  and  C_18
REMARK   12  A    between atoms: C_18  and  C_21
REMARK   13  A    between atoms: C_21  and  C_22
REMARK                            x       y       z     vdW  Elec       q    Type
REMARK                         _______ _______ _______ _____ _____    ______ ____
ROOT
ATOM      1  C   UNL     1       0.675   0.484   0.000  0.00  0.00    +0.000 A 
ATOM      2  C   UNL     1       1.390   0.896   0.000  0.00  0.00    +0.000 A 
ATOM      3  C   UNL     1       2.104   0.484   0.000  0.00  0.00    +0.000 A 
ATOM      4  C   UNL     1       0.675  -0.341   0.000  0.00  0.00    +0.000 A 
ATOM      5  C   UNL     1       1.390  -0.754   0.000  0.00  0.00    +0.000 A 
ATOM      6  C   UNL     1       2.104  -0.341   0.000  0.00  0.00    +0.000 A 
ENDROOT
BRANCH   6   7
ATOM      7  C   UNL     1       2.819  -0.754   0.000  0.00  0.00    +0.000 C 
ATOM      8  C   UNL     1       2.406  -1.468   0.000  0.00  0.00    +0.000 C 
ATOM      9  C   UNL     1       3.231  -0.039   0.000  0.00  0.00    +0.000 C 
BRANCH   7  10
ATOM     10  C   UNL     1       3.533  -1.166   0.000  0.00  0.00    +0.000 C 
BRANCH  10  11
ATOM     11  C   UNL     1       4.248  -0.754   0.000  0.00  0.00    +0.000 C 
ATOM     12  C   UNL     1       4.962  -0.341   0.000  0.00  0.00    +0.000 C 
ATOM     13  C   UNL     1       4.660  -1.468   0.000  0.00  0.00    +0.000 C 
ATOM     14  C   UNL     1       3.835  -0.039   0.000  0.00  0.00    +0.000 C 
ENDBRANCH  10  11
ENDBRANCH   7  10
ENDBRANCH   6   7
BRANCH   1  15
ATOM     15  O   UNL     1      -0.039   0.896   0.000  0.00  0.00    +0.000 OA
BRANCH  15  16
ATOM     16  C   UNL     1      -0.754   0.484   0.000  0.00  0.00    +0.000 C 
BRANCH  16  17
ATOM     17  C   UNL     1      -1.468   0.896   0.000  0.00  0.00    +0.000 C 
BRANCH  17  18
ATOM     18  O   UNL     1      -2.183   0.484   0.000  0.00  0.00    +0.000 OA
BRANCH  18  19
ATOM     19  C   UNL     1      -2.897   0.896   0.000  0.00  0.00    +0.000 C 
BRANCH  19  20
ATOM     20  C   UNL     1      -3.612   0.484   0.000  0.00  0.00    +0.000 C 
BRANCH  20  21
ATOM     21  O   UNL     1      -4.326   0.896   0.000  0.00  0.00    +0.000 OA
BRANCH  21  22
ATOM     22  C   UNL     1      -5.040   0.484   0.000  0.00  0.00    +0.000 C 
BRANCH  22  23
ATOM     23  C   UNL     1      -5.755   0.896   0.000  0.00  0.00    +0.000 C 
BRANCH  23  25
ATOM     24  C   UNL     1      -7.184   0.896   0.000  0.00  0.00    +0.000 C 
ATOM     25  O   UNL     1      -6.470   0.484   0.000  0.00  0.00    +0.000 OA
ENDBRANCH  23  25
ENDBRANCH  22  23
ENDBRANCH  21  22
ENDBRANCH  20  21
ENDBRANCH  19  20
ENDBRANCH  18  19
ENDBRANCH  17  18
ENDBRANCH  16  17
ENDBRANCH  15  16
ENDBRANCH   1  15
TORSDOF 13
