REMARK  Name = TRU
REMARK  2 active torsions:
REMARK  status: ('A' for Active; 'I' for Inactive)
REMARK    1  A    between atoms: C_5  and  C_6
REMARK    2  A    between atoms: C_14  and  S_15
REMARK                            x       y       z     vdW  Elec       q    Type
REMARK                         _______ _______ _______ _____ _____    ______ ____
ROOT
ATOM      1  S   UNL     1      -0.789  -0.663   0.000  0.00  0.00    +0.000 S 
ATOM      2  O   UNL     1      -1.319  -1.295   0.000  0.00  0.00    +0.000 OA
ATOM      3  O   UNL     1      -0.258  -1.295   0.000  0.00  0.00    +0.000 OA
ATOM      4  N   UNL     1      -1.503  -0.251   0.000  0.00  0.00    +0.000 NA
ATOM      5  C   UNL     1      -1.503   0.575   0.000  0.00  0.00    +0.000 C 
ATOM      6  N   UNL     1      -0.789   0.987   0.000  0.00  0.00    +0.000 NA
ATOM      7  C   UNL     1      -0.074   0.575   0.000  0.00  0.00    +0.000 A 
ATOM      8  C   UNL     1       0.640   0.987   0.000  0.00  0.00    +0.000 A 
ATOM      9  C   UNL     1       1.355   0.575   0.000  0.00  0.00    +0.000 A 
ATOM     10 CL   UNL     1       2.069   0.987   0.000  0.00  0.00    +0.000 Cl
ATOM     11  C   UNL     1       1.355  -0.251   0.000  0.00  0.00    +0.000 A 
ATOM     12  C   UNL     1       0.640  -0.663   0.000  0.00  0.00    +0.000 A 
ATOM     13  C   UNL     1      -0.074  -0.251   0.000  0.00  0.00    +0.000 A 
ENDROOT
BRANCH  11  14
ATOM     14  S   UNL     1       2.069  -0.663   0.000  0.00  0.00    +0.000 S 
ATOM     15  N   UNL     1       2.784  -1.075   0.000  0.00  0.00    +0.000 NA
ATOM     16  O   UNL     1       1.657  -1.377   0.000  0.00  0.00    +0.000 OA
ATOM     17  O   UNL     1       2.482   0.051   0.000  0.00  0.00    +0.000 OA
ENDBRANCH  11  14
BRANCH   5  18
ATOM     18  C   UNL     1      -2.218   0.987   0.000  0.00  0.00    +0.000 C 
ATOM     19 CL   UNL     1      -2.932   0.575   0.000  0.00  0.00    +0.000 Cl
ATOM     20 CL   UNL     1      -2.218   1.812   0.000  0.00  0.00    +0.000 Cl
ENDBRANCH   5  18
TORSDOF 2
