REMARK  Name = TRW
REMARK  6 active torsions:
REMARK  status: ('A' for Active; 'I' for Inactive)
REMARK    1  A    between atoms: CA_2  and  C_3
REMARK    2  A    between atoms: CA_2  and  C_15
REMARK    3  A    between atoms: C_3  and  C_4
REMARK    4  A    between atoms: C_12  and  N_13
REMARK    5  A    between atoms: N_13  and  N_17
REMARK    6  A    between atoms: N_17  and  C_18
REMARK                            x       y       z     vdW  Elec       q    Type
REMARK                         _______ _______ _______ _____ _____    ______ ____
ROOT
ATOM      1  C   UNL     1      -1.524  -1.062   0.000  0.00  0.00    +0.000 A 
ATOM      2  C   UNL     1      -0.740  -0.807   0.000  0.00  0.00    +0.000 A 
ATOM      3  C   UNL     1      -0.740   0.018   0.000  0.00  0.00    +0.000 A 
ATOM      4  C   UNL     1      -0.025  -1.220   0.000  0.00  0.00    +0.000 A 
ATOM      5  C   UNL     1      -2.009  -0.395   0.000  0.00  0.00    +0.000 A 
ATOM      6  N   UNL     1      -1.524   0.273   0.000  0.00  0.00    +0.000 NA
ATOM      7  C   UNL     1      -0.025   0.430   0.000  0.00  0.00    +0.000 A 
ATOM      8  C   UNL     1       0.689  -0.807   0.000  0.00  0.00    +0.000 A 
ATOM      9  C   UNL     1       0.689   0.018   0.000  0.00  0.00    +0.000 A 
ATOM     10  O   UNL     1      -0.025   1.255   0.000  0.00  0.00    +0.000 OA
ENDROOT
BRANCH   1  11
ATOM     11  C   UNL     1      -1.779  -1.847   0.000  0.00  0.00    +0.000 C 
BRANCH  11  13
ATOM     12  N   UNL     1      -3.138  -1.405   0.000  0.00  0.00    +0.000 NA
ATOM     13  CA  UNL     1      -2.586  -2.018   0.000  0.00  0.00    +0.000 C 
BRANCH  13  14
ATOM     14  C   UNL     1      -2.841  -2.803   0.000  0.00  0.00    +0.000 C 
ATOM     15  O   UNL     1      -3.648  -2.974   0.000  0.00  0.00    +0.000 OA
ENDBRANCH  13  14
ENDBRANCH  11  13
ENDBRANCH   1  11
BRANCH   9  16
ATOM     16  N   UNL     1       1.404   0.430   0.000  0.00  0.00    +0.000 NA
BRANCH  16  17
ATOM     17  N   UNL     1       1.404   1.255   0.000  0.00  0.00    +0.000 NA
BRANCH  17  18
ATOM     18  C   UNL     1       2.118   1.668   0.000  0.00  0.00    +0.000 A 
ATOM     19  C   UNL     1       2.118   2.493   0.000  0.00  0.00    +0.000 A 
ATOM     20  C   UNL     1       2.833   2.905   0.000  0.00  0.00    +0.000 A 
ATOM     21  C   UNL     1       3.547   2.493   0.000  0.00  0.00    +0.000 A 
ATOM     22  C   UNL     1       3.547   1.668   0.000  0.00  0.00    +0.000 A 
ATOM     23  C   UNL     1       2.833   1.255   0.000  0.00  0.00    +0.000 A 
ENDBRANCH  17  18
ENDBRANCH  16  17
ENDBRANCH   9  16
TORSDOF 6
