REMARK  Name = TRZ
REMARK  5 active torsions:
REMARK  status: ('A' for Active; 'I' for Inactive)
REMARK    1  A    between atoms: C_6  and  C_22
REMARK    2  A    between atoms: C_9  and  C_10
REMARK    3  A    between atoms: C_17  and  C_18
REMARK    4  A    between atoms: C_17  and  C_22
REMARK    5  A    between atoms: C_18  and  C_19
REMARK                            x       y       z     vdW  Elec       q    Type
REMARK                         _______ _______ _______ _____ _____    ______ ____
ROOT
ATOM      1  C   UNL     1      -0.945   0.594   0.000  0.00  0.00    +0.000 A 
ATOM      2  C   UNL     1      -0.230   1.007   0.000  0.00  0.00    +0.000 A 
ATOM      3  C   UNL     1       0.484   0.594   0.000  0.00  0.00    +0.000 A 
ATOM      4  C   UNL     1       0.484  -0.231   0.000  0.00  0.00    +0.000 A 
ATOM      5  C   UNL     1      -0.230  -0.643   0.000  0.00  0.00    +0.000 A 
ATOM      6  C   UNL     1      -0.945  -0.231   0.000  0.00  0.00    +0.000 A 
ATOM      7  C   UNL     1       1.269   0.849   0.000  0.00  0.00    +0.000 C 
ATOM      8  C   UNL     1       1.754   0.182   0.000  0.00  0.00    +0.000 C 
ATOM      9  C   UNL     1       1.269  -0.486   0.000  0.00  0.00    +0.000 C 
ATOM     10  C   UNL     1       2.579   0.182   0.000  0.00  0.00    +0.000 C 
ATOM     11  C   UNL     1       1.106   1.658   0.000  0.00  0.00    +0.000 C 
ATOM     12  C   UNL     1       1.876   1.408   0.000  0.00  0.00    +0.000 C 
ATOM     13  C   UNL     1      -1.659   1.007   0.000  0.00  0.00    +0.000 C 
ENDROOT
BRANCH   9  14
ATOM     14  C   UNL     1       1.524  -1.270   0.000  0.00  0.00    +0.000 C 
ATOM     15  C   UNL     1       2.331  -1.442   0.000  0.00  0.00    +0.000 C 
ATOM     16  C   UNL     1       0.972  -1.883   0.000  0.00  0.00    +0.000 C 
ENDBRANCH   9  14
BRANCH   6  17
ATOM     17  C   UNL     1      -1.659  -0.643   0.000  0.00  0.00    +0.000 C 
ATOM     18  O   UNL     1      -1.659  -1.468   0.000  0.00  0.00    +0.000 OA
BRANCH  17  19
ATOM     19  C   UNL     1      -2.373  -0.231   0.000  0.00  0.00    +0.000 C 
BRANCH  19  20
ATOM     20  C   UNL     1      -3.088  -0.643   0.000  0.00  0.00    +0.000 C 
BRANCH  20  21
ATOM     21  C   UNL     1      -3.802  -0.231   0.000  0.00  0.00    +0.000 C 
ATOM     22  O   UNL     1      -4.517  -0.643   0.000  0.00  0.00    +0.000 OA
ATOM     23  O   UNL     1      -3.802   0.594   0.000  0.00  0.00    +0.000 OA
ENDBRANCH  20  21
ENDBRANCH  19  20
ENDBRANCH  17  19
ENDBRANCH   6  17
TORSDOF 5
