REMARK  Name = TSP
REMARK  4 active torsions:
REMARK  status: ('A' for Active; 'I' for Inactive)
REMARK    1  A    between atoms: P_1  and  O_5
REMARK    2  A    between atoms: O_5  and  C_6
REMARK    3  A    between atoms: C_6  and  C_7
REMARK    4  A    between atoms: C_12  and  N_13
REMARK                            x       y       z     vdW  Elec       q    Type
REMARK                         _______ _______ _______ _____ _____    ______ ____
ROOT
ATOM      1  C   UNL     1      -0.370   0.812   0.000  0.00  0.00    +0.000 C 
ATOM      2  O   UNL     1       0.297   0.328   0.000  0.00  0.00    +0.000 OA
ATOM      3  C   UNL     1      -1.038   0.328   0.000  0.00  0.00    +0.000 C 
ATOM      4  S   UNL     1      -1.822   0.583   0.000  0.00  0.00    +0.000 S 
ATOM      5  C   UNL     1      -0.783  -0.457   0.000  0.00  0.00    +0.000 C 
ATOM      6  C   UNL     1       0.042  -0.457   0.000  0.00  0.00    +0.000 C 
ENDROOT
BRANCH   6   7
ATOM      7  N   UNL     1       0.527  -1.124   0.000  0.00  0.00    +0.000 N 
ATOM      8  C   UNL     1       1.348  -1.038   0.000  0.00  0.00    +0.000 A 
ATOM      9  O   UNL     1       1.683  -0.284   0.000  0.00  0.00    +0.000 OA
ATOM     10  N   UNL     1       1.833  -1.706   0.000  0.00  0.00    +0.000 NA
ATOM     11  C   UNL     1       1.497  -2.459   0.000  0.00  0.00    +0.000 A 
ATOM     12  O   UNL     1       1.982  -3.127   0.000  0.00  0.00    +0.000 OA
ATOM     13  C   UNL     1       0.677  -2.546   0.000  0.00  0.00    +0.000 A 
ATOM     14  C   UNL     1       0.341  -3.299   0.000  0.00  0.00    +0.000 C 
ATOM     15  C   UNL     1       0.192  -1.878   0.000  0.00  0.00    +0.000 A 
ENDBRANCH   6   7
BRANCH   1  16
ATOM     16  C   UNL     1      -0.370   1.637   0.000  0.00  0.00    +0.000 C 
BRANCH  16  17
ATOM     17  O   UNL     1      -1.085   2.050   0.000  0.00  0.00    +0.000 OA
BRANCH  17  18
ATOM     18  P   UNL     1      -1.085   2.875   0.000  0.00  0.00    +0.000 P 
ATOM     19  O   UNL     1      -1.085   3.700   0.000  0.00  0.00    +0.000 OA
ATOM     20  O   UNL     1      -1.910   2.875   0.000  0.00  0.00    +0.000 OA
ATOM     21  O   UNL     1      -0.260   2.875   0.000  0.00  0.00    +0.000 OA
ENDBRANCH  17  18
ENDBRANCH  16  17
ENDBRANCH   1  16
TORSDOF 4
