REMARK  Name = TST
REMARK  7 active torsions:
REMARK  status: ('A' for Active; 'I' for Inactive)
REMARK    1  A    between atoms: N_4  and  S_17
REMARK    2  A    between atoms: C_5  and  C_7
REMARK    3  A    between atoms: N_8  and  CA_10
REMARK    4  A    between atoms: CA_10  and  CB_11
REMARK    5  A    between atoms: CA_10  and  C_12
REMARK    6  A    between atoms: CB_11  and  CG_15
REMARK    7  A    between atoms: S_17  and  C_18
REMARK                            x       y       z     vdW  Elec       q    Type
REMARK                         _______ _______ _______ _____ _____    ______ ____
ROOT
ATOM      1  S   UNK A   0       1.601  -0.582   0.000  0.00  0.00    +0.000 S 
ATOM      2  C   UNK A   0       1.188  -1.296   0.000  0.00  0.00    +0.000 C 
ATOM      3  C   UNK A   0       0.363  -1.296   0.000  0.00  0.00    +0.000 C 
ATOM      4  N   UNK A   0      -0.049  -0.582   0.000  0.00  0.00    +0.000 NA
ATOM      5  C   UNK A   0       0.363   0.133   0.000  0.00  0.00    +0.000 C 
ATOM      6  C   UNK A   0       1.188   0.133   0.000  0.00  0.00    +0.000 C 
ENDROOT
BRANCH   5   7
ATOM      7  C   UNK A   0      -0.049   0.847   0.000  0.00  0.00    +0.000 C 
ATOM      8  N   LEU A   1       0.363   1.562   0.000  0.00  0.00    +0.000 NA
ATOM      9  O   UNK A   0      -0.874   0.847   0.000  0.00  0.00    +0.000 OA
BRANCH   8  10
ATOM     10  CA  LEU A   1       1.188   1.562   0.000  0.00  0.00    +0.000 C 
BRANCH  10  11
ATOM     11  C   LEU A   1       1.601   2.276   0.000  0.00  0.00    +0.000 C 
ATOM     12  O   LEU A   1       2.426   2.276   0.000  0.00  0.00    +0.000 OA
ATOM     13  OXT LEU A   1       1.188   2.991   0.000  0.00  0.00    +0.000 OA
ENDBRANCH  10  11
BRANCH  10  14
ATOM     14  CB  LEU A   1       1.601   0.847   0.000  0.00  0.00    +0.000 C 
BRANCH  14  15
ATOM     15  CG  LEU A   1       2.426   0.847   0.000  0.00  0.00    +0.000 C 
ATOM     16  CD1 LEU A   1       2.838   0.133   0.000  0.00  0.00    +0.000 C 
ATOM     17  CD2 LEU A   1       2.838   1.562   0.000  0.00  0.00    +0.000 C 
ENDBRANCH  14  15
ENDBRANCH  10  14
ENDBRANCH   8  10
ENDBRANCH   5   7
BRANCH   4  18
ATOM     18  S   UNK A   0      -0.874  -0.582   0.000  0.00  0.00    +0.000 S 
ATOM     19  O   UNK A   0      -0.874   0.243   0.000  0.00  0.00    +0.000 OA
ATOM     20  O   UNK A   0      -0.874  -1.407   0.000  0.00  0.00    +0.000 OA
BRANCH  18  21
ATOM     21  C   UNK A   0      -1.699  -0.582   0.000  0.00  0.00    +0.000 A 
ATOM     22  C   UNK A   0      -2.111  -1.296   0.000  0.00  0.00    +0.000 A 
ATOM     23  C   UNK A   0      -2.937  -1.296   0.000  0.00  0.00    +0.000 A 
ATOM     24  C   UNK A   0      -3.349  -0.582   0.000  0.00  0.00    +0.000 A 
ATOM     25  C   UNK A   0      -2.937   0.133   0.000  0.00  0.00    +0.000 A 
ATOM     26  C   UNK A   0      -2.111   0.133   0.000  0.00  0.00    +0.000 A 
ATOM     27  C   UNK A   0      -4.174  -0.582   0.000  0.00  0.00    +0.000 C 
ENDBRANCH  18  21
ENDBRANCH   4  18
TORSDOF 7
