REMARK  Name = TSX
REMARK  8 active torsions:
REMARK  status: ('A' for Active; 'I' for Inactive)
REMARK    1  A    between atoms: N_3  and  C_4
REMARK    2  A    between atoms: C_4  and  C_5
REMARK    3  A    between atoms: N_7  and  C_8
REMARK    4  A    between atoms: C_8  and  C_9
REMARK    5  A    between atoms: C_9  and  C_10
REMARK    6  A    between atoms: C_18  and  C_19
REMARK    7  A    between atoms: C_19  and  C_20
REMARK    8  A    between atoms: C_23  and  N_26
REMARK                            x       y       z     vdW  Elec       q    Type
REMARK                         _______ _______ _______ _____ _____    ______ ____
ROOT
ATOM      1  O   UNL     1       3.049  -0.308   0.000  0.00  0.00    +0.000 OA
ATOM      2  C   UNL     1       2.335  -0.721   0.000  0.00  0.00    +0.000 A 
ATOM      3  N   UNL     1       2.335  -1.546   0.000  0.00  0.00    +0.000 N 
ATOM      4  N   UNL     1       1.620  -0.308   0.000  0.00  0.00    +0.000 N 
ATOM      5  C   UNL     1       0.906  -0.721   0.000  0.00  0.00    +0.000 A 
ATOM      6  N   UNL     1       0.121  -0.466   0.000  0.00  0.00    +0.000 NA
ATOM      7  C   UNL     1       0.906  -1.546   0.000  0.00  0.00    +0.000 A 
ATOM      8  C   UNL     1       1.620  -1.958   0.000  0.00  0.00    +0.000 A 
ATOM      9  O   UNL     1       1.620  -2.783   0.000  0.00  0.00    +0.000 OA
ATOM     10  N   UNL     1       0.121  -1.801   0.000  0.00  0.00    +0.000 NA
ATOM     11  C   UNL     1      -0.364  -1.133   0.000  0.00  0.00    +0.000 A 
ENDROOT
BRANCH   4  12
ATOM     12  C   UNL     1       1.620   0.517   0.000  0.00  0.00    +0.000 C 
BRANCH  12  13
ATOM     13  C   UNL     1       0.906   0.929   0.000  0.00  0.00    +0.000 C 
BRANCH  13  14
ATOM     14  C   UNL     1       0.191   0.517   0.000  0.00  0.00    +0.000 C 
ATOM     15  C   UNL     1      -0.523   0.929   0.000  0.00  0.00    +0.000 C 
ENDBRANCH  13  14
ENDBRANCH  12  13
ENDBRANCH   4  12
BRANCH  11  16
ATOM     16  C   UNL     1      -1.189  -1.133   0.000  0.00  0.00    +0.000 C 
BRANCH  16  17
ATOM     17  C   UNL     1      -1.601  -0.419   0.000  0.00  0.00    +0.000 A 
ATOM     18  C   UNL     1      -2.426  -0.419   0.000  0.00  0.00    +0.000 A 
ATOM     19  C   UNL     1      -2.839   0.296   0.000  0.00  0.00    +0.000 A 
ATOM     20  C   UNL     1      -2.426   1.010   0.000  0.00  0.00    +0.000 A 
ATOM     21  C   UNL     1      -1.601   1.010   0.000  0.00  0.00    +0.000 A 
ATOM     22  C   UNL     1      -1.189   0.296   0.000  0.00  0.00    +0.000 A 
BRANCH  20  23
ATOM     23  N   UNL     1      -2.839   1.725   0.000  0.00  0.00    +0.000 NA
ATOM     24  C   UNL     1      -2.426   2.439   0.000  0.00  0.00    +0.000 C 
ATOM     25  O   UNL     1      -2.839   3.154   0.000  0.00  0.00    +0.000 OA
ATOM     26  C   UNL     1      -1.601   2.439   0.000  0.00  0.00    +0.000 C 
ENDBRANCH  20  23
ENDBRANCH  16  17
ENDBRANCH  11  16
BRANCH   3  27
ATOM     27  C   UNL     1       3.049  -1.958   0.000  0.00  0.00    +0.000 C 
BRANCH  27  28
ATOM     28  C   UNL     1       3.764  -1.546   0.000  0.00  0.00    +0.000 C 
ATOM     29  C   UNL     1       4.478  -1.958   0.000  0.00  0.00    +0.000 C 
ENDBRANCH  27  28
ENDBRANCH   3  27
TORSDOF 8
