REMARK  Name = TTL
REMARK  0 active torsions:
REMARK  status: ('A' for Active; 'I' for Inactive)
REMARK                            x       y       z     vdW  Elec       q    Type
REMARK                         _______ _______ _______ _____ _____    ______ ____
ROOT
ATOM      1  O   UNL     1      -0.280   1.563   0.000  0.00  0.00    +0.000 OA
ATOM      2  C   UNL     1      -0.280   0.738   0.000  0.00  0.00    +0.000 C 
ATOM      3  C   UNL     1       0.435   0.326   0.000  0.00  0.00    +0.000 A 
ATOM      4  C   UNL     1       1.149   0.738   0.000  0.00  0.00    +0.000 A 
ATOM      5  C   UNL     1       1.864   0.326   0.000  0.00  0.00    +0.000 A 
ATOM      6  C   UNL     1       1.864  -0.499   0.000  0.00  0.00    +0.000 A 
ATOM      7  C   UNL     1       1.149  -0.912   0.000  0.00  0.00    +0.000 A 
ATOM      8  C   UNL     1       0.435  -0.499   0.000  0.00  0.00    +0.000 A 
ATOM      9  C   UNL     1      -0.280  -0.912   0.000  0.00  0.00    +0.000 C 
ATOM     10  C   UNL     1      -0.994  -0.499   0.000  0.00  0.00    +0.000 C 
ATOM     11  C   UNL     1      -0.994   0.326   0.000  0.00  0.00    +0.000 C 
ATOM     12  N   UNL     1      -1.708   0.738   0.000  0.00  0.00    +0.000 NA
ENDROOT
TORSDOF 0
