REMARK  Name = TTR
REMARK  0 active torsions:
REMARK  status: ('A' for Active; 'I' for Inactive)
REMARK                            x       y       z     vdW  Elec       q    Type
REMARK                         _______ _______ _______ _____ _____    ______ ____
ROOT
ATOM      1  C   UNL     1       1.830   0.083   0.000  0.00  0.00    +0.000 C 
ATOM      2  C   UNL     1       1.575   0.868   0.000  0.00  0.00    +0.000 C 
ATOM      3  C   UNL     1       0.768   1.039   0.000  0.00  0.00    +0.000 C 
ATOM      4  C   UNL     1       0.216   0.426   0.000  0.00  0.00    +0.000 A 
ATOM      5  C   UNL     1       0.471  -0.359   0.000  0.00  0.00    +0.000 A 
ATOM      6  C   UNL     1      -0.609   0.426   0.000  0.00  0.00    +0.000 A 
ATOM      7  N   UNL     1      -0.196  -0.844   0.000  0.00  0.00    +0.000 N 
ATOM      8  C   UNL     1      -0.196  -1.669   0.000  0.00  0.00    +0.000 C 
ATOM      9  O   UNL     1      -0.911  -2.081   0.000  0.00  0.00    +0.000 OA
ATOM     10  C   UNL     1       0.518  -2.081   0.000  0.00  0.00    +0.000 C 
ATOM     11  C   UNL     1      -0.864  -0.359   0.000  0.00  0.00    +0.000 A 
ATOM     12  C   UNL     1      -1.161   1.039   0.000  0.00  0.00    +0.000 A 
ATOM     13  C   UNL     1      -1.671  -0.530   0.000  0.00  0.00    +0.000 A 
ATOM     14  C   UNL     1      -1.968   0.868   0.000  0.00  0.00    +0.000 A 
ATOM     15  C   UNL     1      -2.223   0.083   0.000  0.00  0.00    +0.000 A 
ATOM     16  C   UNL     1       1.278  -0.530   0.000  0.00  0.00    +0.000 C 
ATOM     17  O   UNL     1       1.533  -1.315   0.000  0.00  0.00    +0.000 OA
ENDROOT
TORSDOF 0
