REMARK  Name = TTT
REMARK  3 active torsions:
REMARK  status: ('A' for Active; 'I' for Inactive)
REMARK    1  A    between atoms: C_1  and  C_2
REMARK    2  A    between atoms: N_18  and  C_19
REMARK    3  A    between atoms: C_19  and  C_21
REMARK                            x       y       z     vdW  Elec       q    Type
REMARK                         _______ _______ _______ _____ _____    ______ ____
ROOT
ATOM      1  C   UNL     1       0.450   0.269   0.000  0.00  0.00    +0.000 C 
ATOM      2  C   UNL     1       1.165  -0.143   0.000  0.00  0.00    +0.000 C 
ENDROOT
BRANCH   1  10
ATOM      3  C   UNL     1       1.165   1.507   0.000  0.00  0.00    +0.000 A 
ATOM      4  C   UNL     1      -0.264   2.332   0.000  0.00  0.00    +0.000 A 
ATOM      5  C   UNL     1       1.165   2.332   0.000  0.00  0.00    +0.000 A 
ATOM      6  C   UNL     1       0.450   2.744   0.000  0.00  0.00    +0.000 A 
ATOM      7  C   UNL     1       1.879   1.094   0.000  0.00  0.00    +0.000 A 
ATOM      8  C   UNL     1       2.594   1.507   0.000  0.00  0.00    +0.000 A 
ATOM      9  C   UNL     1       2.594   2.332   0.000  0.00  0.00    +0.000 A 
ATOM     10  C   UNL     1       0.450   1.094   0.000  0.00  0.00    +0.000 A 
ATOM     11  C   UNL     1       1.879   2.744   0.000  0.00  0.00    +0.000 A 
ATOM     12  C   UNL     1      -0.264   1.507   0.000  0.00  0.00    +0.000 A 
ENDBRANCH   1  10
BRANCH   1  15
ATOM     13  C   UNL     1      -0.264  -0.968   0.000  0.00  0.00    +0.000 C 
ATOM     14  O   UNL     1       0.450  -1.381   0.000  0.00  0.00    +0.000 OA
ATOM     15  N   UNL     1      -0.264  -0.143   0.000  0.00  0.00    +0.000 NA
BRANCH  13  16
ATOM     16  C   UNL     1      -0.979  -1.381   0.000  0.00  0.00    +0.000 A 
ATOM     17  C   UNL     1      -0.979  -2.206   0.000  0.00  0.00    +0.000 A 
ATOM     18  C   UNL     1      -1.693  -0.968   0.000  0.00  0.00    +0.000 A 
ATOM     19  C   UNL     1      -0.264  -2.618   0.000  0.00  0.00    +0.000 C 
ATOM     20  C   UNL     1      -2.408  -1.381   0.000  0.00  0.00    +0.000 A 
ATOM     21  C   UNL     1      -2.408  -2.206   0.000  0.00  0.00    +0.000 A 
ATOM     22  C   UNL     1      -1.693  -2.618   0.000  0.00  0.00    +0.000 A 
ATOM     23  N   UNL     1      -3.122  -0.968   0.000  0.00  0.00    +0.000 NA
ENDBRANCH  13  16
ENDBRANCH   1  15
TORSDOF 3
