REMARK  Name = TUI
REMARK  8 active torsions:
REMARK  status: ('A' for Active; 'I' for Inactive)
REMARK    1  A    between atoms: C_6  and  S_7
REMARK    2  A    between atoms: S_7  and  C_8
REMARK    3  A    between atoms: N_16  and  C_17
REMARK    4  A    between atoms: C_17  and  C_18
REMARK    5  A    between atoms: C_22  and  C_23
REMARK    6  A    between atoms: C_28  and  O_29
REMARK    7  A    between atoms: O_29  and  C_30
REMARK    8  A    between atoms: C_30  and  C_31
REMARK                            x       y       z     vdW  Elec       q    Type
REMARK                         _______ _______ _______ _____ _____    ______ ____
ROOT
ATOM      1  C   UNL     1       0.305  -0.010   0.000  0.00  0.00    +0.000 C 
ENDROOT
BRANCH   1  10
ATOM      2  O   UNL     1       0.305  -1.660   0.000  0.00  0.00    +0.000 OA
ATOM      3  C   UNL     1      -0.410  -1.247   0.000  0.00  0.00    +0.000 C 
ATOM      4  N   UNL     1      -1.124  -1.660   0.000  0.00  0.00    +0.000 NA
ATOM      5  C   UNL     1      -1.124  -2.485   0.000  0.00  0.00    +0.000 A 
ATOM      6  S   UNL     1      -1.792  -2.970   0.000  0.00  0.00    +0.000 S 
ATOM      7  C   UNL     1      -1.537  -3.754   0.000  0.00  0.00    +0.000 A 
ATOM      8  C   UNL     1      -0.712  -3.754   0.000  0.00  0.00    +0.000 A 
ATOM      9  N   UNL     1      -0.457  -2.970   0.000  0.00  0.00    +0.000 NA
ATOM     10  N   UNL     1      -0.410  -0.422   0.000  0.00  0.00    +0.000 NA
BRANCH   7  11
ATOM     11  S   UNL     1      -2.022  -4.422   0.000  0.00  0.00    +0.000 S 
BRANCH  11  12
ATOM     12  C   UNL     1      -1.686  -5.175   0.000  0.00  0.00    +0.000 A 
ATOM     13  N   UNL     1      -2.171  -5.843   0.000  0.00  0.00    +0.000 NA
ATOM     14  C   UNL     1      -1.835  -6.597   0.000  0.00  0.00    +0.000 A 
ATOM     15  C   UNL     1      -1.015  -6.683   0.000  0.00  0.00    +0.000 A 
ATOM     16  C   UNL     1      -0.530  -6.015   0.000  0.00  0.00    +0.000 A 
ATOM     17  C   UNL     1      -0.866  -5.262   0.000  0.00  0.00    +0.000 A 
ENDBRANCH  11  12
ENDBRANCH   7  11
ENDBRANCH   1  10
BRANCH   1  18
ATOM     18  C   UNL     1       0.305   0.815   0.000  0.00  0.00    +0.000 A 
ATOM     19  N   UNL     1       0.972   1.300   0.000  0.00  0.00    +0.000 NA
ATOM     20  N   UNL     1      -0.363   1.300   0.000  0.00  0.00    +0.000 NA
ATOM     21  C   UNL     1      -0.108   2.085   0.000  0.00  0.00    +0.000 A 
ATOM     22  C   UNL     1       0.717   2.085   0.000  0.00  0.00    +0.000 A 
BRANCH  22  23
ATOM     23  C   UNL     1       1.202   2.752   0.000  0.00  0.00    +0.000 A 
ATOM     24  C   UNL     1       2.023   2.666   0.000  0.00  0.00    +0.000 A 
ATOM     25  C   UNL     1       2.508   3.333   0.000  0.00  0.00    +0.000 A 
ATOM     26  C   UNL     1       0.867   3.506   0.000  0.00  0.00    +0.000 A 
ATOM     27  C   UNL     1       1.352   4.173   0.000  0.00  0.00    +0.000 A 
ATOM     28  C   UNL     1       2.172   4.087   0.000  0.00  0.00    +0.000 A 
BRANCH  28  29
ATOM     29  O   UNL     1       2.657   4.755   0.000  0.00  0.00    +0.000 OA
BRANCH  29  30
ATOM     30  C   UNL     1       2.321   5.508   0.000  0.00  0.00    +0.000 C 
BRANCH  30  31
ATOM     31  C   UNL     1       2.806   6.176   0.000  0.00  0.00    +0.000 C 
ATOM     32  O   UNL     1       2.471   6.929   0.000  0.00  0.00    +0.000 OA
ATOM     33  O   UNL     1       3.627   6.089   0.000  0.00  0.00    +0.000 OA
ENDBRANCH  30  31
ENDBRANCH  29  30
ENDBRANCH  28  29
ENDBRANCH  22  23
ENDBRANCH   1  18
TORSDOF 8
