REMARK  Name = TUN
REMARK  5 active torsions:
REMARK  status: ('A' for Active; 'I' for Inactive)
REMARK    1  A    between atoms: C_2  and  O_3
REMARK    2  A    between atoms: O_3  and  P_4
REMARK    3  A    between atoms: P_4  and  N_6
REMARK    4  A    between atoms: N_6  and  C_7
REMARK    5  A    between atoms: N_6  and  C_9
REMARK                            x       y       z     vdW  Elec       q    Type
REMARK                         _______ _______ _______ _____ _____    ______ ____
ROOT
ATOM      1  P   UNL     1      -0.581  -0.571   0.000  0.00  0.00    +0.000 P 
ATOM      2  O   UNL     1      -0.581  -1.396   0.000  0.00  0.00    +0.000 OA
ATOM      3  O   UNL     1      -0.581   0.254   0.000  0.00  0.00    +0.000 OA
ENDROOT
BRANCH   1   4
ATOM      4  O   UNL     1      -1.406  -0.571   0.000  0.00  0.00    +0.000 OA
BRANCH   4   6
ATOM      5  C   UNL     1      -2.643   0.143   0.000  0.00  0.00    +0.000 C 
ATOM      6  C   UNL     1      -1.818   0.143   0.000  0.00  0.00    +0.000 C 
ENDBRANCH   4   6
ENDBRANCH   1   4
BRANCH   1   7
ATOM      7  N   UNL     1       0.244  -0.571   0.000  0.00  0.00    +0.000 NA
BRANCH   7   8
ATOM      8  C   UNL     1       0.657  -1.286   0.000  0.00  0.00    +0.000 C 
ATOM      9  C   UNL     1       1.482  -1.286   0.000  0.00  0.00    +0.000 C 
ENDBRANCH   7   8
BRANCH   7  10
ATOM     10  C   UNL     1       0.657   0.143   0.000  0.00  0.00    +0.000 C 
ATOM     11  C   UNL     1       1.482   0.143   0.000  0.00  0.00    +0.000 C 
ENDBRANCH   7  10
ENDBRANCH   1   7
TORSDOF 5
