REMARK  Name = TUO
REMARK  3 active torsions:
REMARK  status: ('A' for Active; 'I' for Inactive)
REMARK    1  A    between atoms: C_6  and  C_7
REMARK    2  A    between atoms: C_10  and  S_11
REMARK    3  A    between atoms: C_19  and  C_20
REMARK                            x       y       z     vdW  Elec       q    Type
REMARK                         _______ _______ _______ _____ _____    ______ ____
ROOT
ATOM      1  C   UNL     1      -0.616   0.158   0.000  0.00  0.00    +0.000 A 
ATOM      2  C   UNL     1       0.168   0.412   0.000  0.00  0.00    +0.000 A 
ATOM      3  C   UNL     1       0.883   0.000   0.000  0.00  0.00    +0.000 A 
ATOM      4  C   UNL     1       1.597   0.412   0.000  0.00  0.00    +0.000 A 
ATOM      5  C   UNL     1       1.597   1.238   0.000  0.00  0.00    +0.000 A 
ATOM      6  C   UNL     1       0.883   1.650   0.000  0.00  0.00    +0.000 A 
ATOM      7  C   UNL     1       0.168   1.238   0.000  0.00  0.00    +0.000 A 
ATOM      8  N   UNL     1      -0.616   1.492   0.000  0.00  0.00    +0.000 NA
ATOM      9  C   UNL     1      -1.101   0.825   0.000  0.00  0.00    +0.000 A 
ENDROOT
BRANCH   1  15
ATOM     10  C   UNL     1      -1.678  -0.799   0.000  0.00  0.00    +0.000 A 
ATOM     11  C   UNL     1      -1.933  -1.583   0.000  0.00  0.00    +0.000 A 
ATOM     12  C   UNL     1      -1.381  -2.196   0.000  0.00  0.00    +0.000 A 
ATOM     13  C   UNL     1      -0.574  -2.025   0.000  0.00  0.00    +0.000 A 
ATOM     14  C   UNL     1      -0.319  -1.240   0.000  0.00  0.00    +0.000 A 
ATOM     15  C   UNL     1      -0.871  -0.627   0.000  0.00  0.00    +0.000 A 
ENDBRANCH   1  15
BRANCH   4  16
ATOM     16  S   UNL     1       2.312   0.000   0.000  0.00  0.00    +0.000 S 
ATOM     17  O   UNL     1       3.026  -0.412   0.000  0.00  0.00    +0.000 OA
ATOM     18  O   UNL     1       1.899  -0.715   0.000  0.00  0.00    +0.000 OA
ATOM     19  N   UNL     1       2.724   0.714   0.000  0.00  0.00    +0.000 NA
ENDBRANCH   4  16
BRANCH   9  20
ATOM     20  C   UNL     1      -1.926   0.825   0.000  0.00  0.00    +0.000 C 
ATOM     21  O   UNL     1      -2.339   1.539   0.000  0.00  0.00    +0.000 OA
ATOM     22  N   UNL     1      -2.339   0.111   0.000  0.00  0.00    +0.000 NA
ATOM     23  N   UNL     1      -3.164   0.111   0.000  0.00  0.00    +0.000 NA
ENDBRANCH   9  20
TORSDOF 3
