REMARK  Name = TXS
REMARK  3 active torsions:
REMARK  status: ('A' for Active; 'I' for Inactive)
REMARK    1  A    between atoms: N_5  and  C_6
REMARK    2  A    between atoms: C_6  and  C_7
REMARK    3  A    between atoms: C_12  and  N_13
REMARK                            x       y       z     vdW  Elec       q    Type
REMARK                         _______ _______ _______ _____ _____    ______ ____
ROOT
ATOM      1  C   UNL     1      -0.171  -0.579   0.000  0.00  0.00    +0.000 C 
ATOM      2  O   UNL     1      -0.925  -0.243   0.000  0.00  0.00    +0.000 OA
ATOM      3  C   UNL     1       0.381   0.034   0.000  0.00  0.00    +0.000 C 
ATOM      4  O   UNL     1       1.202  -0.052   0.000  0.00  0.00    +0.000 OA
ATOM      5  C   UNL     1      -0.031   0.749   0.000  0.00  0.00    +0.000 C 
ATOM      6  C   UNL     1      -0.838   0.577   0.000  0.00  0.00    +0.000 C 
ENDROOT
BRANCH   6   7
ATOM      7  N   UNL     1      -1.452   1.129   0.000  0.00  0.00    +0.000 N 
ATOM      8  C   UNL     1      -2.236   0.874   0.000  0.00  0.00    +0.000 A 
ATOM      9  C   UNL     1      -2.849   1.426   0.000  0.00  0.00    +0.000 A 
ATOM     10  C   UNL     1      -3.634   1.171   0.000  0.00  0.00    +0.000 C 
ATOM     11  C   UNL     1      -2.678   2.233   0.000  0.00  0.00    +0.000 A 
ATOM     12  O   UNL     1      -3.291   2.785   0.000  0.00  0.00    +0.000 OA
ATOM     13  N   UNL     1      -1.893   2.488   0.000  0.00  0.00    +0.000 NA
ATOM     14  C   UNL     1      -1.280   1.936   0.000  0.00  0.00    +0.000 A 
ATOM     15  O   UNL     1      -0.495   2.191   0.000  0.00  0.00    +0.000 OA
ENDBRANCH   6   7
BRANCH   1  16
ATOM     16  C   UNL     1       0.001  -1.386   0.000  0.00  0.00    +0.000 C 
BRANCH  16  21
ATOM     17  C   UNL     1       1.453  -1.156   0.000  0.00  0.00    +0.000 C 
ATOM     18  C   UNL     1       2.120  -1.641   0.000  0.00  0.00    +0.000 C 
ATOM     19  C   UNL     1       1.865  -2.425   0.000  0.00  0.00    +0.000 C 
ATOM     20  C   UNL     1       1.040  -2.425   0.000  0.00  0.00    +0.000 C 
ATOM     21  N   UNL     1       0.785  -1.641   0.000  0.00  0.00    +0.000 NA
ENDBRANCH  16  21
ENDBRANCH   1  16
TORSDOF 3
