REMARK  Name = TYC
REMARK  3 active torsions:
REMARK  status: ('A' for Active; 'I' for Inactive)
REMARK    1  A    between atoms: C_2  and  C_3
REMARK    2  A    between atoms: C_2  and  C_5
REMARK    3  A    between atoms: C_5  and  C_6
REMARK                            x       y       z     vdW  Elec       q    Type
REMARK                         _______ _______ _______ _____ _____    ______ ____
ROOT
ATOM      1  C   UNL     1      -0.126  -0.435   0.000  0.00  0.00    +0.000 A 
ATOM      2  C   UNL     1      -0.126  -1.260   0.000  0.00  0.00    +0.000 A 
ATOM      3  C   UNL     1      -0.840  -0.023   0.000  0.00  0.00    +0.000 A 
ATOM      4  C   UNL     1      -0.840  -1.673   0.000  0.00  0.00    +0.000 A 
ATOM      5  C   UNL     1      -1.554  -0.435   0.000  0.00  0.00    +0.000 A 
ATOM      6  O   UNL     1      -2.269  -1.673   0.000  0.00  0.00    +0.000 OA
ATOM      7  C   UNL     1      -1.554  -1.260   0.000  0.00  0.00    +0.000 A 
ENDROOT
BRANCH   1   8
ATOM      8  C   UNL     1       0.589  -0.023   0.000  0.00  0.00    +0.000 C 
BRANCH   8  10
ATOM      9  N   UNL     1      -0.126   1.214   0.000  0.00  0.00    +0.000 NA
ATOM     10  C   UNL     1       0.589   0.802   0.000  0.00  0.00    +0.000 C 
BRANCH  10  11
ATOM     11  C   UNL     1       1.304   1.214   0.000  0.00  0.00    +0.000 C 
ATOM     12  O   UNL     1       1.304   2.039   0.000  0.00  0.00    +0.000 OA
ATOM     13  N   UNL     1       2.018   0.802   0.000  0.00  0.00    +0.000 NA
ENDBRANCH  10  11
ENDBRANCH   8  10
ENDBRANCH   1   8
TORSDOF 3
