REMARK  Name = TYI
REMARK  3 active torsions:
REMARK  status: ('A' for Active; 'I' for Inactive)
REMARK    1  A    between atoms: CA_2  and  C_3
REMARK    2  A    between atoms: CA_2  and  C_11
REMARK    3  A    between atoms: C_3  and  C_4
REMARK                            x       y       z     vdW  Elec       q    Type
REMARK                         _______ _______ _______ _____ _____    ______ ____
ROOT
ATOM      1  C   UNL     1      -0.057  -0.387   0.000  0.00  0.00    +0.000 A 
ATOM      2  C   UNL     1      -0.057  -1.212   0.000  0.00  0.00    +0.000 A 
ATOM      3  C   UNL     1      -0.772  -1.625   0.000  0.00  0.00    +0.000 A 
ATOM      4  C   UNL     1      -0.772   0.025   0.000  0.00  0.00    +0.000 A 
ATOM      5  C   UNL     1      -1.486  -0.387   0.000  0.00  0.00    +0.000 A 
ATOM      6  C   UNL     1      -1.486  -1.212   0.000  0.00  0.00    +0.000 A 
ATOM      7  O   UNL     1      -2.201  -1.625   0.000  0.00  0.00    +0.000 OA
ATOM      8  I   UNL     1      -0.772  -2.450   0.000  0.00  0.00    +0.000 I 
ATOM      9  I   UNL     1      -2.201   0.025   0.000  0.00  0.00    +0.000 I 
ENDROOT
BRANCH   1  10
ATOM     10  C   UNL     1       0.657   0.025   0.000  0.00  0.00    +0.000 C 
BRANCH  10  12
ATOM     11  N   UNL     1      -0.057   1.263   0.000  0.00  0.00    +0.000 NA
ATOM     12  CA  UNL     1       0.657   0.851   0.000  0.00  0.00    +0.000 C 
BRANCH  12  13
ATOM     13  C   UNL     1       1.372   1.263   0.000  0.00  0.00    +0.000 C 
ATOM     14  O   UNL     1       1.372   2.088   0.000  0.00  0.00    +0.000 OA
ATOM     15  OXT UNL     1       2.086   0.851   0.000  0.00  0.00    +0.000 OA
ENDBRANCH  12  13
ENDBRANCH  10  12
ENDBRANCH   1  10
TORSDOF 3
