REMARK  Name = TYP
REMARK  2 active torsions:
REMARK  status: ('A' for Active; 'I' for Inactive)
REMARK    1  A    between atoms: CA_2  and  CB_5
REMARK    2  A    between atoms: CB_5  and  CG_6
REMARK                            x       y       z     vdW  Elec       q    Type
REMARK                         _______ _______ _______ _____ _____    ______ ____
ROOT
ATOM      1  N   TYR A   1      -0.075   0.430   0.000  0.00  0.00    +0.000 NA
ATOM      2  CA  TYR A   1      -0.075  -0.395   0.000  0.00  0.00    +0.000 C 
ATOM      3  C   TYR A   1      -0.789  -0.807   0.000  0.00  0.00    +0.000 C 
ATOM      4  O   TYR A   1      -0.789  -1.633   0.000  0.00  0.00    +0.000 OA
ATOM      5  N   PRO A   2      -1.504  -0.395   0.000  0.00  0.00    +0.000 N 
ATOM      6  CA  PRO A   2      -1.504   0.430   0.000  0.00  0.00    +0.000 C 
ATOM      7  C   PRO A   2      -0.789   0.843   0.000  0.00  0.00    +0.000 C 
ATOM      8  O   PRO A   2      -0.789   1.667   0.000  0.00  0.00    +0.000 OA
ATOM      9  CB  PRO A   2      -2.288   0.685   0.000  0.00  0.00    +0.000 C 
ATOM     10  CG  PRO A   2      -2.773   0.018   0.000  0.00  0.00    +0.000 C 
ATOM     11  CD  PRO A   2      -2.288  -0.650   0.000  0.00  0.00    +0.000 C 
ENDROOT
BRANCH   2  12
ATOM     12  CB  TYR A   1       0.640  -0.807   0.000  0.00  0.00    +0.000 C 
BRANCH  12  13
ATOM     13  CG  TYR A   1       1.354  -0.395   0.000  0.00  0.00    +0.000 A 
ATOM     14  CD1 TYR A   1       1.354   0.430   0.000  0.00  0.00    +0.000 A 
ATOM     15  CE1 TYR A   1       2.069   0.843   0.000  0.00  0.00    +0.000 A 
ATOM     16  CE2 TYR A   1       2.783  -0.395   0.000  0.00  0.00    +0.000 A 
ATOM     17  CD2 TYR A   1       2.069  -0.807   0.000  0.00  0.00    +0.000 A 
ATOM     18  CZ  TYR A   1       2.783   0.430   0.000  0.00  0.00    +0.000 A 
ATOM     19  OH  TYR A   1       3.498   0.843   0.000  0.00  0.00    +0.000 OA
ENDBRANCH  12  13
ENDBRANCH   2  12
TORSDOF 2
