REMARK  Name = TZY
REMARK  3 active torsions:
REMARK  status: ('A' for Active; 'I' for Inactive)
REMARK    1  A    between atoms: C_4  and  C_20
REMARK    2  A    between atoms: C_13  and  C_14
REMARK    3  A    between atoms: C_17  and  C_18
REMARK                            x       y       z     vdW  Elec       q    Type
REMARK                         _______ _______ _______ _____ _____    ______ ____
ROOT
ATOM      1  C   UNL     1       2.179   1.478   0.000  0.00  0.00    +0.000 A 
ATOM      2  C   UNL     1       2.039   0.150   0.000  0.00  0.00    +0.000 A 
ATOM      3  N   UNL     1       2.591   0.763   0.000  0.00  0.00    +0.000 NA
ATOM      4  O   UNL     1       1.372   1.306   0.000  0.00  0.00    +0.000 OA
ATOM      5  C   UNL     1       1.285   0.485   0.000  0.00  0.00    +0.000 A 
ENDROOT
BRANCH   5  10
ATOM      6  C   UNL     1      -0.143   0.485   0.000  0.00  0.00    +0.000 A 
ATOM      7  C   UNL     1      -0.143  -1.165   0.000  0.00  0.00    +0.000 A 
ATOM      8  C   UNL     1       0.571  -0.752   0.000  0.00  0.00    +0.000 A 
ATOM      9  C   UNL     1      -0.858  -0.752   0.000  0.00  0.00    +0.000 A 
ATOM     10  C   UNL     1       0.571   0.073   0.000  0.00  0.00    +0.000 A 
ATOM     11  N   UNL     1      -0.858   0.073   0.000  0.00  0.00    +0.000 N 
ATOM     12  C   UNL     1      -1.643   0.328   0.000  0.00  0.00    +0.000 A 
ATOM     13  N   UNL     1      -1.643  -1.007   0.000  0.00  0.00    +0.000 NA
ATOM     14  N   UNL     1      -2.127  -0.340   0.000  0.00  0.00    +0.000 NA
BRANCH  12  15
ATOM     15  C   UNL     1      -1.897   1.113   0.000  0.00  0.00    +0.000 C 
ATOM     16  C   UNL     1      -2.704   1.284   0.000  0.00  0.00    +0.000 C 
ATOM     17  C   UNL     1      -1.345   1.726   0.000  0.00  0.00    +0.000 C 
ENDBRANCH  12  15
ENDBRANCH   5  10
BRANCH   2  24
ATOM     18  C   UNL     1       2.554  -2.271   0.000  0.00  0.00    +0.000 A 
ATOM     19  F   UNL     1       2.725  -3.078   0.000  0.00  0.00    +0.000 F 
ATOM     20  C   UNL     1       1.769  -2.016   0.000  0.00  0.00    +0.000 A 
ATOM     21  C   UNL     1       1.597  -1.209   0.000  0.00  0.00    +0.000 A 
ATOM     22  C   UNL     1       3.167  -1.719   0.000  0.00  0.00    +0.000 A 
ATOM     23  C   UNL     1       2.995  -0.912   0.000  0.00  0.00    +0.000 A 
ATOM     24  C   UNL     1       2.211  -0.657   0.000  0.00  0.00    +0.000 A 
ENDBRANCH   2  24
TORSDOF 3
