REMARK  Name = U01
REMARK  3 active torsions:
REMARK  status: ('A' for Active; 'I' for Inactive)
REMARK    1  A    between atoms: C_1  and  C_12
REMARK    2  A    between atoms: C_6  and  C_12
REMARK    3  A    between atoms: C_12  and  C_13
REMARK                            x       y       z     vdW  Elec       q    Type
REMARK                         _______ _______ _______ _____ _____    ______ ____
ROOT
ATOM      1  C   UNL     1       0.310  -0.356   0.000  0.00  0.00    +0.000 A 
ATOM      2  C   UNL     1       0.310  -1.181   0.000  0.00  0.00    +0.000 A 
ATOM      3  C   UNL     1       1.739  -1.181   0.000  0.00  0.00    +0.000 A 
ATOM      4  C   UNL     1       1.739  -0.356   0.000  0.00  0.00    +0.000 A 
ATOM      5  C   UNL     1       1.025   0.057   0.000  0.00  0.00    +0.000 A 
ATOM      6  C   UNL     1       2.454  -1.593   0.000  0.00  0.00    +0.000 A 
ATOM      7  C   UNL     1       3.168  -1.181   0.000  0.00  0.00    +0.000 A 
ATOM      8  C   UNL     1       3.168  -0.356   0.000  0.00  0.00    +0.000 A 
ATOM      9  C   UNL     1       2.454   0.057   0.000  0.00  0.00    +0.000 A 
ATOM     10  O   UNL     1      -0.404  -1.593   0.000  0.00  0.00    +0.000 OA
ATOM     11  O   UNL     1       1.025  -1.593   0.000  0.00  0.00    +0.000 OA
ATOM     12  O   UNL     1       1.025   0.882   0.000  0.00  0.00    +0.000 OA
ENDROOT
BRANCH   1  13
ATOM     13  C   UNL     1      -0.404   0.057   0.000  0.00  0.00    +0.000 C 
BRANCH  13  14
ATOM     14  C   UNL     1      -0.404   0.882   0.000  0.00  0.00    +0.000 A 
ATOM     15  C   UNL     1      -1.119   1.294   0.000  0.00  0.00    +0.000 A 
ATOM     16  C   UNL     1      -1.119   2.119   0.000  0.00  0.00    +0.000 A 
ATOM     17  C   UNL     1      -0.404   2.532   0.000  0.00  0.00    +0.000 A 
ATOM     18  C   UNL     1       0.310   2.119   0.000  0.00  0.00    +0.000 A 
ATOM     19  C   UNL     1       0.310   1.294   0.000  0.00  0.00    +0.000 A 
ATOM     20 BR   UNL     1      -0.404   3.357   0.000  0.00  0.00    +0.000 Br
ENDBRANCH  13  14
BRANCH  13  21
ATOM     21  C   UNL     1      -1.119  -0.356   0.000  0.00  0.00    +0.000 C 
ATOM     22  C   UNL     1      -1.833   0.057   0.000  0.00  0.00    +0.000 C 
ATOM     23  C   UNL     1      -1.119  -1.181   0.000  0.00  0.00    +0.000 C 
ENDBRANCH  13  21
ENDBRANCH   1  13
TORSDOF 3
