REMARK  Name = U03
REMARK  4 active torsions:
REMARK  status: ('A' for Active; 'I' for Inactive)
REMARK    1  A    between atoms: C_1  and  C_12
REMARK    2  A    between atoms: C_6  and  C_12
REMARK    3  A    between atoms: C_12  and  C_13
REMARK    4  A    between atoms: C_16  and  O_23
REMARK                            x       y       z     vdW  Elec       q    Type
REMARK                         _______ _______ _______ _____ _____    ______ ____
ROOT
ATOM      1  C   UNL     1      -0.433  -0.044   0.000  0.00  0.00    +0.000 A 
ATOM      2  C   UNL     1      -0.433  -0.869   0.000  0.00  0.00    +0.000 A 
ATOM      3  C   UNL     1       0.996  -0.869   0.000  0.00  0.00    +0.000 A 
ATOM      4  C   UNL     1       0.996  -0.044   0.000  0.00  0.00    +0.000 A 
ATOM      5  C   UNL     1       0.281   0.368   0.000  0.00  0.00    +0.000 A 
ATOM      6  C   UNL     1       1.710  -1.282   0.000  0.00  0.00    +0.000 A 
ATOM      7  C   UNL     1       2.425  -0.869   0.000  0.00  0.00    +0.000 A 
ATOM      8  C   UNL     1       2.425  -0.044   0.000  0.00  0.00    +0.000 A 
ATOM      9  C   UNL     1       1.710   0.368   0.000  0.00  0.00    +0.000 A 
ATOM     10  O   UNL     1      -1.148  -1.282   0.000  0.00  0.00    +0.000 OA
ATOM     11  O   UNL     1       0.281  -1.282   0.000  0.00  0.00    +0.000 OA
ATOM     12  O   UNL     1       0.281   1.193   0.000  0.00  0.00    +0.000 OA
ENDROOT
BRANCH   7  14
ATOM     13  C   UNL     1       3.854  -0.869   0.000  0.00  0.00    +0.000 C 
ATOM     14  O   UNL     1       3.139  -1.282   0.000  0.00  0.00    +0.000 OA
ENDBRANCH   7  14
BRANCH   1  15
ATOM     15  C   UNL     1      -1.148   0.368   0.000  0.00  0.00    +0.000 C 
BRANCH  15  16
ATOM     16  C   UNL     1      -1.862  -0.044   0.000  0.00  0.00    +0.000 A 
ATOM     17  C   UNL     1      -1.862  -0.869   0.000  0.00  0.00    +0.000 A 
ATOM     18  C   UNL     1      -2.576  -1.282   0.000  0.00  0.00    +0.000 A 
ATOM     19  C   UNL     1      -3.291  -0.869   0.000  0.00  0.00    +0.000 A 
ATOM     20  C   UNL     1      -3.291  -0.044   0.000  0.00  0.00    +0.000 A 
ATOM     21  C   UNL     1      -2.576   0.368   0.000  0.00  0.00    +0.000 A 
ENDBRANCH  15  16
BRANCH  15  22
ATOM     22  C   UNL     1      -1.148   1.193   0.000  0.00  0.00    +0.000 C 
ATOM     23  C   UNL     1      -1.862   1.606   0.000  0.00  0.00    +0.000 C 
ENDBRANCH  15  22
ENDBRANCH   1  15
TORSDOF 4
