REMARK  Name = U05
REMARK  2 active torsions:
REMARK  status: ('A' for Active; 'I' for Inactive)
REMARK    1  A    between atoms: C_13  and  N_14
REMARK    2  A    between atoms: N_19  and  C_20
REMARK                            x       y       z     vdW  Elec       q    Type
REMARK                         _______ _______ _______ _____ _____    ______ ____
ROOT
ATOM      1  N   UNL     1      -1.480  -0.852   0.000  0.00  0.00    +0.000 NA
ATOM      2  C   UNL     1      -2.268  -0.609   0.000  0.00  0.00    +0.000 A 
ATOM      3  C   UNL     1      -2.452   0.195   0.000  0.00  0.00    +0.000 A 
ATOM      4  C   UNL     1      -1.847   0.756   0.000  0.00  0.00    +0.000 A 
ATOM      5  C   UNL     1      -1.059   0.513   0.000  0.00  0.00    +0.000 A 
ATOM      6  C   UNL     1      -0.544   1.158   0.000  0.00  0.00    +0.000 C 
ATOM      7  O   UNL     1      -0.902   1.901   0.000  0.00  0.00    +0.000 OA
ATOM      8  N   UNL     1       0.281   1.158   0.000  0.00  0.00    +0.000 N 
ATOM      9  C   UNL     1       0.638   1.901   0.000  0.00  0.00    +0.000 C 
ATOM     10  C   UNL     1       0.795   0.513   0.000  0.00  0.00    +0.000 A 
ATOM     11  C   UNL     1       1.583   0.756   0.000  0.00  0.00    +0.000 A 
ATOM     12  C   UNL     1       2.188   0.195   0.000  0.00  0.00    +0.000 A 
ATOM     13  C   UNL     1       2.005  -0.609   0.000  0.00  0.00    +0.000 A 
ATOM     14  C   UNL     1       1.216  -0.852   0.000  0.00  0.00    +0.000 A 
ATOM     15  C   UNL     1       0.611  -0.291   0.000  0.00  0.00    +0.000 A 
ATOM     16  N   UNL     1      -0.132  -0.649   0.000  0.00  0.00    +0.000 N 
ATOM     17  C   UNL     1      -0.875  -0.291   0.000  0.00  0.00    +0.000 A 
ENDROOT
BRANCH  13  18
ATOM     18  N   UNL     1       2.609  -1.170   0.000  0.00  0.00    +0.000 N 
ATOM     19  O   UNL     1       3.398  -0.927   0.000  0.00  0.00    +0.000 OA
ATOM     20  O   UNL     1       2.426  -1.975   0.000  0.00  0.00    +0.000 OA
ENDBRANCH  13  18
BRANCH  16  21
ATOM     21  C   UNL     1      -0.132  -1.474   0.000  0.00  0.00    +0.000 C 
ATOM     22  C   UNL     1      -0.846  -1.887   0.000  0.00  0.00    +0.000 C 
ENDBRANCH  16  21
TORSDOF 2
