REMARK  Name = U15
REMARK  10 active torsions:
REMARK  status: ('A' for Active; 'I' for Inactive)
REMARK    1  A    between atoms: C_2  and  O_3
REMARK    2  A    between atoms: C_2  and  C_5
REMARK    3  A    between atoms: C_5  and  C_6
REMARK    4  A    between atoms: C_5  and  N_10
REMARK    5  A    between atoms: C_6  and  C_7
REMARK    6  A    between atoms: C_11  and  C_13
REMARK    7  A    between atoms: C_13  and  N_15
REMARK    8  A    between atoms: C_16  and  C_18
REMARK    9  A    between atoms: C_18  and  C_20
REMARK   10  A    between atoms: C_20  and  C_22
REMARK                            x       y       z     vdW  Elec       q    Type
REMARK                         _______ _______ _______ _____ _____    ______ ____
ROOT
ATOM      1  C   UNL     1      -0.327   0.692   0.000  0.00  0.00    +0.000 C 
ATOM      2  C   UNL     1      -0.129   1.493   0.000  0.00  0.00    +0.000 C 
ENDROOT
BRANCH   1   4
ATOM      3  N   UNL     1      -1.714   1.035   0.000  0.00  0.00    +0.000 NA
ATOM      4  C   UNL     1      -1.119   0.463   0.000  0.00  0.00    +0.000 C 
ATOM      5  O   UNL     1      -0.809  -0.301   0.000  0.00  0.00    +0.000 OA
BRANCH   3   6
ATOM      6  C   UNL     1      -2.506   0.806   0.000  0.00  0.00    +0.000 C 
BRANCH   6   8
ATOM      7  O   UNL     1      -2.903   2.179   0.000  0.00  0.00    +0.000 OA
ATOM      8  C   UNL     1      -3.101   1.379   0.000  0.00  0.00    +0.000 C 
BRANCH   8   9
ATOM      9  O   UNL     1      -3.894   1.150   0.000  0.00  0.00    +0.000 OA
ATOM     10  C   UNL     1      -4.488   1.722   0.000  0.00  0.00    +0.000 C 
ENDBRANCH   8   9
ENDBRANCH   6   8
BRANCH   6  11
ATOM     11  C   UNL     1      -2.705   0.006   0.000  0.00  0.00    +0.000 C 
BRANCH  11  12
ATOM     12  C   UNL     1      -2.110  -0.566   0.000  0.00  0.00    +0.000 C 
ATOM     13  C   UNL     1      -1.317  -0.338   0.000  0.00  0.00    +0.000 C 
ATOM     14  C   UNL     1      -2.308  -1.367   0.000  0.00  0.00    +0.000 C 
ENDBRANCH  11  12
ENDBRANCH   6  11
ENDBRANCH   3   6
ENDBRANCH   1   4
BRANCH   1  15
ATOM     15  N   UNL     1       0.268   0.120   0.000  0.00  0.00    +0.000 NA
ATOM     16  C   UNL     1       1.060   0.349   0.000  0.00  0.00    +0.000 C 
ATOM     17  O   UNL     1       1.259   1.150   0.000  0.00  0.00    +0.000 OA
BRANCH  16  18
ATOM     18  C   UNL     1       1.655  -0.223   0.000  0.00  0.00    +0.000 C 
ATOM     19  O   UNL     1       1.457  -1.024   0.000  0.00  0.00    +0.000 OA
BRANCH  18  20
ATOM     20  C   UNL     1       2.447   0.006   0.000  0.00  0.00    +0.000 C 
ATOM     21  N   UNL     1       2.646   0.806   0.000  0.00  0.00    +0.000 NA
BRANCH  20  22
ATOM     22  C   UNL     1       3.042  -0.566   0.000  0.00  0.00    +0.000 A 
ATOM     23  C   UNL     1       3.835  -0.338   0.000  0.00  0.00    +0.000 A 
ATOM     24  C   UNL     1       4.429  -0.910   0.000  0.00  0.00    +0.000 A 
ATOM     25  C   UNL     1       4.231  -1.710   0.000  0.00  0.00    +0.000 A 
ATOM     26  C   UNL     1       4.825  -2.283   0.000  0.00  0.00    +0.000 C 
ATOM     27  C   UNL     1       3.438  -1.939   0.000  0.00  0.00    +0.000 A 
ATOM     28  C   UNL     1       2.844  -1.367   0.000  0.00  0.00    +0.000 A 
ENDBRANCH  20  22
ENDBRANCH  18  20
ENDBRANCH  16  18
ENDBRANCH   1  15
TORSDOF 10
