REMARK  Name = U16
REMARK  11 active torsions:
REMARK  status: ('A' for Active; 'I' for Inactive)
REMARK    1  A    between atoms: C_2  and  C_3
REMARK    2  A    between atoms: C_3  and  C_4
REMARK    3  A    between atoms: C_4  and  C_5
REMARK    4  A    between atoms: C_8  and  C_9
REMARK    5  A    between atoms: N_16  and  C_17
REMARK    6  A    between atoms: C_17  and  C_19
REMARK    7  A    between atoms: N_21  and  C_22
REMARK    8  A    between atoms: C_22  and  C_23
REMARK    9  A    between atoms: C_22  and  C_27
REMARK   10  A    between atoms: C_23  and  C_24
REMARK   11  A    between atoms: C_27  and  O_29
REMARK                            x       y       z     vdW  Elec       q    Type
REMARK                         _______ _______ _______ _____ _____    ______ ____
ROOT
ATOM      1  O   UNL     1      -0.876   1.311   0.000  0.00  0.00    +0.000 OA
ATOM      2  C   UNL     1      -0.678   0.510   0.000  0.00  0.00    +0.000 C 
ATOM      3  N   UNL     1       0.114   0.281   0.000  0.00  0.00    +0.000 NA
ENDROOT
BRANCH   3   4
ATOM      4  C   UNL     1       0.709   0.853   0.000  0.00  0.00    +0.000 C 
ATOM      5  C   UNL     1       0.511   1.654   0.000  0.00  0.00    +0.000 C 
BRANCH   4   6
ATOM      6  C   UNL     1       1.501   0.624   0.000  0.00  0.00    +0.000 C 
ATOM      7  O   UNL     1       1.700  -0.176   0.000  0.00  0.00    +0.000 OA
ATOM      8  N   UNL     1       2.096   1.196   0.000  0.00  0.00    +0.000 NA
BRANCH   8   9
ATOM      9  C   UNL     1       2.889   0.968   0.000  0.00  0.00    +0.000 C 
BRANCH   9  10
ATOM     10  C   UNL     1       3.087   0.167   0.000  0.00  0.00    +0.000 C 
ATOM     11  O   UNL     1       2.492  -0.405   0.000  0.00  0.00    +0.000 OA
BRANCH  10  12
ATOM     12  O   UNL     1       3.879  -0.062   0.000  0.00  0.00    +0.000 OA
ATOM     13  C   UNL     1       4.077  -0.863   0.000  0.00  0.00    +0.000 C 
ENDBRANCH  10  12
ENDBRANCH   9  10
BRANCH   9  14
ATOM     14  C   UNL     1       3.483   1.540   0.000  0.00  0.00    +0.000 C 
BRANCH  14  15
ATOM     15  C   UNL     1       4.276   1.311   0.000  0.00  0.00    +0.000 C 
ATOM     16  C   UNL     1       4.870   1.883   0.000  0.00  0.00    +0.000 C 
ATOM     17  C   UNL     1       4.474   0.510   0.000  0.00  0.00    +0.000 C 
ENDBRANCH  14  15
ENDBRANCH   9  14
ENDBRANCH   8   9
ENDBRANCH   4   6
ENDBRANCH   3   4
BRANCH   2  18
ATOM     18  C   UNL     1      -1.273  -0.062   0.000  0.00  0.00    +0.000 C 
ATOM     19  O   UNL     1      -1.075  -0.863   0.000  0.00  0.00    +0.000 OA
BRANCH  18  20
ATOM     20  C   UNL     1      -2.066   0.167   0.000  0.00  0.00    +0.000 C 
ATOM     21  N   UNL     1      -2.264   0.968   0.000  0.00  0.00    +0.000 NA
BRANCH  20  22
ATOM     22  C   UNL     1      -2.660  -0.405   0.000  0.00  0.00    +0.000 A 
ATOM     23  C   UNL     1      -2.462  -1.206   0.000  0.00  0.00    +0.000 A 
ATOM     24  C   UNL     1      -3.056  -1.778   0.000  0.00  0.00    +0.000 A 
ATOM     25  C   UNL     1      -3.849  -1.549   0.000  0.00  0.00    +0.000 A 
ATOM     26  C   UNL     1      -4.047  -0.749   0.000  0.00  0.00    +0.000 A 
ATOM     27  C   UNL     1      -3.453  -0.176   0.000  0.00  0.00    +0.000 A 
BRANCH  25  28
ATOM     28  C   UNL     1      -4.443  -2.121   0.000  0.00  0.00    +0.000 C 
ATOM     29  C   UNL     1      -5.236  -1.893   0.000  0.00  0.00    +0.000 C 
ATOM     30  C   UNL     1      -4.245  -2.922   0.000  0.00  0.00    +0.000 C 
ENDBRANCH  25  28
ENDBRANCH  20  22
ENDBRANCH  18  20
ENDBRANCH   2  18
TORSDOF 11
