REMARK  Name = U1K
REMARK  4 active torsions:
REMARK  status: ('A' for Active; 'I' for Inactive)
REMARK    1  A    between atoms: C_2  and  CA_4
REMARK    2  A    between atoms: CA_4  and  C_5
REMARK    3  A    between atoms: C_5  and  C_6
REMARK    4  A    between atoms: C_7  and  C_12
REMARK                            x       y       z     vdW  Elec       q    Type
REMARK                         _______ _______ _______ _____ _____    ______ ____
ROOT
ATOM      1  C   UNL     1      -0.442   0.539   0.000  0.00  0.00    +0.000 A 
ATOM      2  C   UNL     1      -0.697  -0.246   0.000  0.00  0.00    +0.000 A 
ATOM      3  S   UNL     1      -1.522  -0.246   0.000  0.00  0.00    +0.000 S 
ATOM      4  N   UNL     1      -1.777   0.539   0.000  0.00  0.00    +0.000 NA
ATOM      5  C   UNL     1      -1.110   1.024   0.000  0.00  0.00    +0.000 A 
ATOM      6  O   UNL     1      -1.110   1.849   0.000  0.00  0.00    +0.000 OA
ENDROOT
BRANCH   2   7
ATOM      7  C   UNL     1      -0.212  -0.913   0.000  0.00  0.00    +0.000 C 
ATOM      8  C   UNL     1       0.273  -1.581   0.000  0.00  0.00    +0.000 C 
ATOM      9  C   UNL     1      -0.880  -1.398   0.000  0.00  0.00    +0.000 C 
ATOM     10  C   UNL     1       0.455  -0.428   0.000  0.00  0.00    +0.000 C 
ENDBRANCH   2   7
BRANCH   1  11
ATOM     11  C   UNL     1       0.342   0.794   0.000  0.00  0.00    +0.000 C 
BRANCH  11  12
ATOM     12  CA  UNL     1       0.514   1.601   0.000  0.00  0.00    +0.000 C 
ATOM     13  N   UNL     1      -0.099   2.153   0.000  0.00  0.00    +0.000 NA
BRANCH  12  15
ATOM     14  O   UNL     1       1.470   2.663   0.000  0.00  0.00    +0.000 OA
ATOM     15  C   UNL     1       1.298   1.856   0.000  0.00  0.00    +0.000 C 
ATOM     16  OXT UNL     1       1.911   1.304   0.000  0.00  0.00    +0.000 OA
ENDBRANCH  12  15
ENDBRANCH  11  12
ENDBRANCH   1  11
TORSDOF 4
