REMARK  Name = U1N
REMARK  8 active torsions:
REMARK  status: ('A' for Active; 'I' for Inactive)
REMARK    1  A    between atoms: C_1  and  C_22
REMARK    2  A    between atoms: C_4  and  C_7
REMARK    3  A    between atoms: C_7  and  C_8
REMARK    4  A    between atoms: C_8  and  C_9
REMARK    5  A    between atoms: C_9  and  N_11
REMARK    6  A    between atoms: N_11  and  C_12
REMARK    7  A    between atoms: C_12  and  C_13
REMARK    8  A    between atoms: C_13  and  C_15
REMARK                            x       y       z     vdW  Elec       q    Type
REMARK                         _______ _______ _______ _____ _____    ______ ____
ROOT
ATOM      1  C   UNL     1      -1.907   1.214   0.000  0.00  0.00    +0.000 C 
ATOM      2  C   UNL     1      -1.907   0.390   0.000  0.00  0.00    +0.000 C 
ENDROOT
BRANCH   1   3
ATOM      3  C   UNL     1      -2.622   1.627   0.000  0.00  0.00    +0.000 C 
BRANCH   3   4
ATOM      4  C   UNL     1      -3.336   1.214   0.000  0.00  0.00    +0.000 C 
BRANCH   4   8
ATOM      5  C   UNL     1      -5.479   2.452   0.000  0.00  0.00    +0.000 A 
ATOM      6  C   UNL     1      -5.479   1.627   0.000  0.00  0.00    +0.000 A 
ATOM      7  C   UNL     1      -4.765   1.214   0.000  0.00  0.00    +0.000 A 
ATOM      8  C   UNL     1      -4.051   1.627   0.000  0.00  0.00    +0.000 A 
ATOM      9  C   UNL     1      -4.051   2.452   0.000  0.00  0.00    +0.000 A 
ATOM     10  C   UNL     1      -4.765   2.865   0.000  0.00  0.00    +0.000 A 
BRANCH   5  11
ATOM     11  C   UNL     1      -6.194   2.865   0.000  0.00  0.00    +0.000 C 
ATOM     12  N   UNL     1      -6.908   2.452   0.000  0.00  0.00    +0.000 NA
ATOM     13  O   UNL     1      -6.194   3.689   0.000  0.00  0.00    +0.000 OA
ENDBRANCH   5  11
ENDBRANCH   4   8
ENDBRANCH   3   4
ENDBRANCH   1   3
BRANCH   1  14
ATOM     14  N   UNL     1      -1.193   1.627   0.000  0.00  0.00    +0.000 NA
BRANCH  14  15
ATOM     15  C   UNL     1      -0.478   1.214   0.000  0.00  0.00    +0.000 C 
BRANCH  15  16
ATOM     16  C   UNL     1       0.236   1.627   0.000  0.00  0.00    +0.000 C 
ATOM     17  O   UNL     1       0.236   2.452   0.000  0.00  0.00    +0.000 OA
BRANCH  16  18
ATOM     18  C   UNL     1       0.951   1.214   0.000  0.00  0.00    +0.000 A 
ATOM     19  C   UNL     1       0.951   0.390   0.000  0.00  0.00    +0.000 A 
ATOM     20  C   UNL     1       1.665  -0.023   0.000  0.00  0.00    +0.000 A 
ATOM     21  C   UNL     1       2.380   0.390   0.000  0.00  0.00    +0.000 A 
ATOM     22  F   UNL     1       3.094  -0.023   0.000  0.00  0.00    +0.000 F 
ATOM     23  C   UNL     1       2.380   1.214   0.000  0.00  0.00    +0.000 A 
ATOM     24  C   UNL     1       1.665   1.627   0.000  0.00  0.00    +0.000 A 
ENDBRANCH  16  18
ENDBRANCH  15  16
ENDBRANCH  14  15
ENDBRANCH   1  14
TORSDOF 8
