REMARK  Name = U32
REMARK  3 active torsions:
REMARK  status: ('A' for Active; 'I' for Inactive)
REMARK    1  A    between atoms: C_4  and  C_5
REMARK    2  A    between atoms: C_13  and  S_19
REMARK    3  A    between atoms: N_14  and  C_17
REMARK                            x       y       z     vdW  Elec       q    Type
REMARK                         _______ _______ _______ _____ _____    ______ ____
ROOT
ATOM      1  C   UNL     1      -2.050  -1.417   0.000  0.00  0.00    +0.000 A 
ATOM      2  C   UNL     1      -2.386  -0.664   0.000  0.00  0.00    +0.000 A 
ATOM      3  C   UNL     1      -1.901   0.004   0.000  0.00  0.00    +0.000 A 
ATOM      4  C   UNL     1      -1.081  -0.083   0.000  0.00  0.00    +0.000 A 
ATOM      5  C   UNL     1      -0.745  -0.836   0.000  0.00  0.00    +0.000 A 
ATOM      6  C   UNL     1      -1.230  -1.504   0.000  0.00  0.00    +0.000 A 
ENDROOT
BRANCH   5  12
ATOM      7  C   UNL     1       0.973   1.014   0.000  0.00  0.00    +0.000 A 
ATOM      8  C   UNL     1       1.640   0.530   0.000  0.00  0.00    +0.000 A 
ATOM      9  S   UNL     1       1.385  -0.255   0.000  0.00  0.00    +0.000 S 
ATOM     10  C   UNL     1       0.560  -0.255   0.000  0.00  0.00    +0.000 A 
ATOM     11  N   UNL     1       0.305   0.530   0.000  0.00  0.00    +0.000 NA
ATOM     12  N   UNL     1       0.075  -0.922   0.000  0.00  0.00    +0.000 NA
BRANCH   8  13
ATOM     13  C   UNL     1       2.425   0.784   0.000  0.00  0.00    +0.000 C 
ATOM     14  C   UNL     1       2.597   1.591   0.000  0.00  0.00    +0.000 C 
ATOM     15  C   UNL     1       3.038   0.233   0.000  0.00  0.00    +0.000 C 
ENDBRANCH   8  13
ENDBRANCH   5  12
BRANCH   2  19
ATOM     16  O   UNL     1      -4.027  -0.491   0.000  0.00  0.00    +0.000 OA
ATOM     17  O   UNL     1      -3.293  -1.398   0.000  0.00  0.00    +0.000 OA
ATOM     18  N   UNL     1      -3.120   0.243   0.000  0.00  0.00    +0.000 NA
ATOM     19  S   UNL     1      -3.206  -0.578   0.000  0.00  0.00    +0.000 S 
ENDBRANCH   2  19
TORSDOF 3
