REMARK  Name = U49
REMARK  1 active torsions:
REMARK  status: ('A' for Active; 'I' for Inactive)
REMARK    1  A    between atoms: C_18  and  C_22
REMARK                            x       y       z     vdW  Elec       q    Type
REMARK                         _______ _______ _______ _____ _____    ______ ____
ROOT
ATOM      1  C   UNL     1      -1.660  -0.068   0.000  0.00  0.00    +0.000 A 
ATOM      2  C   UNL     1      -1.520   0.745   0.000  0.00  0.00    +0.000 A 
ATOM      3  C   UNL     1      -2.434  -0.353   0.000  0.00  0.00    +0.000 A 
ATOM      4  C   UNL     1      -1.026  -0.596   0.000  0.00  0.00    +0.000 A 
ATOM      5  N   UNL     1      -1.065   1.579   0.000  0.00  0.00    +0.000 N 
ATOM      6  C   UNL     1      -2.153   1.273   0.000  0.00  0.00    +0.000 A 
ATOM      7  C   UNL     1      -2.575  -1.166   0.000  0.00  0.00    +0.000 A 
ATOM      8  C   UNL     1      -3.068   0.176   0.000  0.00  0.00    +0.000 A 
ATOM      9  C   UNL     1      -1.167  -1.409   0.000  0.00  0.00    +0.000 A 
ATOM     10  C   UNL     1      -1.101   2.403   0.000  0.00  0.00    +0.000 C 
ATOM     11  C   UNL     1      -0.270   1.359   0.000  0.00  0.00    +0.000 C 
ATOM     12  C   UNL     1      -2.928   0.989   0.000  0.00  0.00    +0.000 A 
ATOM     13  C   UNL     1      -1.942  -1.694   0.000  0.00  0.00    +0.000 A 
ATOM     14  O   UNL     1      -0.497  -1.891   0.000  0.00  0.00    +0.000 OA
ATOM     15  C   UNL     1      -0.329   2.693   0.000  0.00  0.00    +0.000 C 
ATOM     16  C   UNL     1       0.185   2.048   0.000  0.00  0.00    +0.000 C 
ATOM     17  C   UNL     1       0.483  -2.013   0.000  0.00  0.00    +0.000 A 
ATOM     18  C   UNL     1       0.773  -2.785   0.000  0.00  0.00    +0.000 A 
ATOM     19  C   UNL     1       1.008  -1.376   0.000  0.00  0.00    +0.000 A 
ATOM     20  C   UNL     1       1.924   1.477   0.000  0.00  0.00    +0.000 C 
ATOM     21  C   UNL     1       1.586  -2.921   0.000  0.00  0.00    +0.000 A 
ATOM     22  C   UNL     1       1.821  -1.512   0.000  0.00  0.00    +0.000 A 
ATOM     23  C   UNL     1       2.358   0.776   0.000  0.00  0.00    +0.000 A 
ATOM     24  C   UNL     1       2.111  -2.284   0.000  0.00  0.00    +0.000 A 
ATOM     25  C   UNL     1       2.303  -0.842   0.000  0.00  0.00    +0.000 C 
ATOM     26  N   UNL     1       2.491  -0.038   0.000  0.00  0.00    +0.000 N 
ATOM     27  C   UNL     1       3.091   1.154   0.000  0.00  0.00    +0.000 A 
ATOM     28  C   UNL     1       3.307  -0.163   0.000  0.00  0.00    +0.000 A 
ATOM     29  N   UNL     1       3.678   0.574   0.000  0.00  0.00    +0.000 NA
ATOM     30  O   UNL     1       0.020   0.587   0.000  0.00  0.00    +0.000 OA
ATOM     31  N   UNL     1       1.254   1.958   0.000  0.00  0.00    +0.000 NA
ENDROOT
BRANCH  18  32
ATOM     32  C   UNL     1       0.248  -3.422   0.000  0.00  0.00    +0.000 C 
ATOM     33  N   UNL     1      -0.276  -4.059   0.000  0.00  0.00    +0.000 NA
ENDBRANCH  18  32
TORSDOF 1
