REMARK  Name = UA5
REMARK  3 active torsions:
REMARK  status: ('A' for Active; 'I' for Inactive)
REMARK    1  A    between atoms: S_2  and  N_5
REMARK    2  A    between atoms: N_5  and  C_6
REMARK    3  A    between atoms: C_9  and  C_10
REMARK                            x       y       z     vdW  Elec       q    Type
REMARK                         _______ _______ _______ _____ _____    ______ ____
ROOT
ATOM      1  C   UNL     1       1.422  -0.175   0.000  0.00  0.00    +0.000 A 
ATOM      2  C   UNL     1       0.707   0.237   0.000  0.00  0.00    +0.000 A 
ATOM      3  C   UNL     1      -0.007  -0.175   0.000  0.00  0.00    +0.000 A 
ATOM      4  C   UNL     1      -0.007  -1.000   0.000  0.00  0.00    +0.000 A 
ATOM      5  C   UNL     1       0.707  -1.413   0.000  0.00  0.00    +0.000 A 
ATOM      6  C   UNL     1       1.422  -1.000   0.000  0.00  0.00    +0.000 A 
ENDROOT
BRANCH   4   7
ATOM      7  C   UNL     1      -0.722  -1.413   0.000  0.00  0.00    +0.000 C 
ATOM      8  C   UNL     1      -0.722  -2.238   0.000  0.00  0.00    +0.000 C 
ENDBRANCH   4   7
BRANCH   1   9
ATOM      9  N   UNL     1       2.136   0.237   0.000  0.00  0.00    +0.000 NA
BRANCH   9  11
ATOM     10  O   UNL     1       3.565  -0.588   0.000  0.00  0.00    +0.000 OA
ATOM     11  S   UNL     1       2.851  -0.175   0.000  0.00  0.00    +0.000 S 
ATOM     12  O   UNL     1       3.263   0.539   0.000  0.00  0.00    +0.000 OA
ATOM     13  O   UNL     1       2.438  -0.890   0.000  0.00  0.00    +0.000 OA
ENDBRANCH   9  11
ENDBRANCH   1   9
TORSDOF 3
