REMARK  Name = UC4
REMARK  5 active torsions:
REMARK  status: ('A' for Active; 'I' for Inactive)
REMARK    1  A    between atoms: C_2  and  C_9
REMARK    2  A    between atoms: C_6  and  N_23
REMARK    3  A    between atoms: C_9  and  O_10
REMARK    4  A    between atoms: O_10  and  C_11
REMARK    5  A    between atoms: C_16  and  C_22
REMARK                            x       y       z     vdW  Elec       q    Type
REMARK                         _______ _______ _______ _____ _____    ______ ____
ROOT
ATOM      1 CL   UNL     1       3.005   0.324   0.000  0.00  0.00    +0.000 Cl
ATOM      2  C   UNL     1       1.576   0.324   0.000  0.00  0.00    +0.000 A 
ATOM      3  C   UNL     1       2.291  -0.089   0.000  0.00  0.00    +0.000 A 
ATOM      4  C   UNL     1       2.291  -0.914   0.000  0.00  0.00    +0.000 A 
ATOM      5  C   UNL     1       1.576  -1.326   0.000  0.00  0.00    +0.000 A 
ATOM      6  C   UNL     1       0.862  -0.914   0.000  0.00  0.00    +0.000 A 
ATOM      7  C   UNL     1       0.862  -0.089   0.000  0.00  0.00    +0.000 A 
ENDROOT
BRANCH   6  10
ATOM      8  O   UNL     1      -0.567  -0.089   0.000  0.00  0.00    +0.000 OA
ATOM      9  C   UNL     1      -0.567  -0.914   0.000  0.00  0.00    +0.000 C 
ATOM     10  N   UNL     1       0.147  -1.326   0.000  0.00  0.00    +0.000 NA
BRANCH   9  13
ATOM     11  O   UNL     1      -2.711  -1.326   0.000  0.00  0.00    +0.000 OA
ATOM     12  C   UNL     1      -1.996  -0.914   0.000  0.00  0.00    +0.000 C 
ATOM     13  C   UNL     1      -1.282  -1.326   0.000  0.00  0.00    +0.000 C 
ATOM     14  S   UNL     1      -1.282  -2.151   0.000  0.00  0.00    +0.000 S 
ATOM     15  C   UNL     1      -1.996  -2.564   0.000  0.00  0.00    +0.000 C 
ATOM     16  C   UNL     1      -2.711  -2.151   0.000  0.00  0.00    +0.000 C 
ATOM     17  C   UNL     1      -1.996  -0.089   0.000  0.00  0.00    +0.000 C 
ENDBRANCH   9  13
ENDBRANCH   6  10
BRANCH   2  19
ATOM     18  O   UNL     1       0.862   1.561   0.000  0.00  0.00    +0.000 OA
ATOM     19  C   UNL     1       1.576   1.149   0.000  0.00  0.00    +0.000 C 
BRANCH  19  20
ATOM     20  O   UNL     1       2.291   1.561   0.000  0.00  0.00    +0.000 OA
BRANCH  20  21
ATOM     21  C   UNL     1       2.291   2.386   0.000  0.00  0.00    +0.000 C 
ATOM     22  C   UNL     1       3.005   2.799   0.000  0.00  0.00    +0.000 C 
ATOM     23  C   UNL     1       1.576   2.799   0.000  0.00  0.00    +0.000 C 
ENDBRANCH  20  21
ENDBRANCH  19  20
ENDBRANCH   2  19
TORSDOF 5
