REMARK  Name = UCM
REMARK  0 active torsions:
REMARK  status: ('A' for Active; 'I' for Inactive)
REMARK                            x       y       z     vdW  Elec       q    Type
REMARK                         _______ _______ _______ _____ _____    ______ ____
ROOT
ATOM      1  N   UNL     1       0.004  -2.992   0.000  0.00  0.00    +0.000 NA
ATOM      2  C   UNL     1       0.672  -2.508   0.000  0.00  0.00    +0.000 C 
ATOM      3  O   UNL     1       1.457  -2.763   0.000  0.00  0.00    +0.000 OA
ATOM      4  C   UNL     1       0.417  -1.723   0.000  0.00  0.00    +0.000 A 
ATOM      5  C   UNL     1       0.858  -1.005   0.000  0.00  0.00    +0.000 A 
ATOM      6  C   UNL     1       1.665  -0.782   0.000  0.00  0.00    +0.000 A 
ATOM      7  C   UNL     1       1.725   0.041   0.000  0.00  0.00    +0.000 A 
ATOM      8  C   UNL     1       2.467   0.401   0.000  0.00  0.00    +0.000 A 
ATOM      9  C   UNL     1       3.150  -0.061   0.000  0.00  0.00    +0.000 A 
ATOM     10  C   UNL     1       3.091  -0.884   0.000  0.00  0.00    +0.000 A 
ATOM     11  C   UNL     1       2.348  -1.244   0.000  0.00  0.00    +0.000 A 
ATOM     12  N   UNL     1       0.954   0.399   0.000  0.00  0.00    +0.000 N 
ATOM     13  C   UNL     1       0.433  -0.286   0.000  0.00  0.00    +0.000 A 
ATOM     14  C   UNL     1      -0.417  -0.287   0.000  0.00  0.00    +0.000 A 
ATOM     15  N   UNL     1      -0.945   0.392   0.000  0.00  0.00    +0.000 N 
ATOM     16  C   UNL     1      -1.725   0.047   0.000  0.00  0.00    +0.000 A 
ATOM     17  C   UNL     1      -1.658  -0.775   0.000  0.00  0.00    +0.000 A 
ATOM     18  C   UNL     1      -2.337  -1.244   0.000  0.00  0.00    +0.000 A 
ATOM     19  C   UNL     1      -3.082  -0.890   0.000  0.00  0.00    +0.000 A 
ATOM     20  C   UNL     1      -3.149  -0.068   0.000  0.00  0.00    +0.000 A 
ATOM     21  C   UNL     1      -2.470   0.401   0.000  0.00  0.00    +0.000 A 
ATOM     22  C   UNL     1      -0.846  -1.003   0.000  0.00  0.00    +0.000 A 
ATOM     23  C   UNL     1      -0.407  -1.723   0.000  0.00  0.00    +0.000 A 
ATOM     24  C   UNL     1      -0.663  -2.507   0.000  0.00  0.00    +0.000 C 
ATOM     25  O   UNL     1      -1.447  -2.762   0.000  0.00  0.00    +0.000 OA
ATOM     26  C   UNL     1      -0.726   1.254   0.000  0.00  0.00    +0.000 C 
ATOM     27  O   UNL     1       0.004   1.175   0.000  0.00  0.00    +0.000 OA
ATOM     28  C   UNL     1       0.729   1.259   0.000  0.00  0.00    +0.000 C 
ATOM     29  C   UNL     1       0.435   2.082   0.000  0.00  0.00    +0.000 C 
ATOM     30  C   UNL     1      -0.434   2.083   0.000  0.00  0.00    +0.000 C 
ENDROOT
TORSDOF 0
