REMARK  Name = UI2
REMARK  2 active torsions:
REMARK  status: ('A' for Active; 'I' for Inactive)
REMARK    1  A    between atoms: C_5  and  N_11
REMARK    2  A    between atoms: C_9  and  C_18
REMARK                            x       y       z     vdW  Elec       q    Type
REMARK                         _______ _______ _______ _____ _____    ______ ____
ROOT
ATOM      1  C   UNL     1      -1.137  -1.376   0.000  0.00  0.00    +0.000 A 
ATOM      2  C   UNL     1      -0.422  -1.788   0.000  0.00  0.00    +0.000 A 
ATOM      3  C   UNL     1       0.292  -1.376   0.000  0.00  0.00    +0.000 A 
ATOM      4  C   UNL     1       0.292  -0.551   0.000  0.00  0.00    +0.000 A 
ATOM      5  C   UNL     1      -0.422  -0.138   0.000  0.00  0.00    +0.000 A 
ATOM      6  C   UNL     1      -1.137  -0.551   0.000  0.00  0.00    +0.000 A 
ATOM      7  C   UNL     1       1.007  -1.788   0.000  0.00  0.00    +0.000 A 
ATOM      8  C   UNL     1       1.721  -1.376   0.000  0.00  0.00    +0.000 A 
ATOM      9  C   UNL     1       1.721  -0.551   0.000  0.00  0.00    +0.000 A 
ATOM     10  C   UNL     1       1.007  -0.138   0.000  0.00  0.00    +0.000 A 
ENDROOT
BRANCH   5  11
ATOM     11  N   UNL     1      -0.422   0.687   0.000  0.00  0.00    +0.000 NA
ATOM     12  C   UNL     1      -1.137   1.099   0.000  0.00  0.00    +0.000 A 
ATOM     13  N   UNL     1      -1.851   0.687   0.000  0.00  0.00    +0.000 NA
ATOM     14  C   UNL     1      -2.566   1.099   0.000  0.00  0.00    +0.000 A 
ATOM     15  C   UNL     1      -2.566   1.924   0.000  0.00  0.00    +0.000 A 
ATOM     16  C   UNL     1      -1.851   2.337   0.000  0.00  0.00    +0.000 A 
ATOM     17  N   UNL     1      -1.137   1.924   0.000  0.00  0.00    +0.000 NA
ENDBRANCH   5  11
BRANCH   9  18
ATOM     18  C   UNL     1       2.436  -0.138   0.000  0.00  0.00    +0.000 C 
ATOM     19  N   UNL     1       2.436   0.687   0.000  0.00  0.00    +0.000 NA
ATOM     20  N   UNL     1       3.150  -0.551   0.000  0.00  0.00    +0.000 NA
ENDBRANCH   9  18
TORSDOF 2
