REMARK  Name = UIN
REMARK  3 active torsions:
REMARK  status: ('A' for Active; 'I' for Inactive)
REMARK    1  A    between atoms: C_1  and  C_15
REMARK    2  A    between atoms: C_9  and  C_15
REMARK    3  A    between atoms: C_15  and  C_16
REMARK                            x       y       z     vdW  Elec       q    Type
REMARK                         _______ _______ _______ _____ _____    ______ ____
ROOT
ATOM      1  C   UNL     1      -0.699  -0.302   0.000  0.00  0.00    +0.000 A 
ATOM      2  C   UNL     1      -0.699  -1.127   0.000  0.00  0.00    +0.000 A 
ATOM      3  O   UNL     1      -1.414  -1.540   0.000  0.00  0.00    +0.000 OA
ATOM      4  O   UNL     1       0.015  -1.540   0.000  0.00  0.00    +0.000 OA
ATOM      5  C   UNL     1       0.730  -1.127   0.000  0.00  0.00    +0.000 A 
ATOM      6  C   UNL     1       0.730  -0.302   0.000  0.00  0.00    +0.000 A 
ATOM      7  C   UNL     1       0.015   0.110   0.000  0.00  0.00    +0.000 A 
ATOM      8  O   UNL     1       0.015   0.935   0.000  0.00  0.00    +0.000 OA
ATOM      9  C   UNL     1       1.313  -1.711   0.000  0.00  0.00    +0.000 C 
ATOM     10  C   UNL     1       2.138  -1.711   0.000  0.00  0.00    +0.000 C 
ATOM     11  C   UNL     1       2.721  -1.127   0.000  0.00  0.00    +0.000 C 
ATOM     12  C   UNL     1       2.721  -0.302   0.000  0.00  0.00    +0.000 C 
ATOM     13  C   UNL     1       2.138   0.281   0.000  0.00  0.00    +0.000 C 
ATOM     14  C   UNL     1       1.313   0.281   0.000  0.00  0.00    +0.000 C 
ENDROOT
BRANCH   1  15
ATOM     15  C   UNL     1      -1.414   0.110   0.000  0.00  0.00    +0.000 C 
BRANCH  15  16
ATOM     16  C   UNL     1      -1.414   0.935   0.000  0.00  0.00    +0.000 A 
ATOM     17  C   UNL     1      -2.128   1.347   0.000  0.00  0.00    +0.000 A 
ATOM     18  C   UNL     1      -2.128   2.172   0.000  0.00  0.00    +0.000 A 
ATOM     19  C   UNL     1      -1.414   2.585   0.000  0.00  0.00    +0.000 A 
ATOM     20  C   UNL     1      -0.699   2.172   0.000  0.00  0.00    +0.000 A 
ATOM     21  C   UNL     1      -0.699   1.347   0.000  0.00  0.00    +0.000 A 
ENDBRANCH  15  16
BRANCH  15  22
ATOM     22  C   UNL     1      -2.128  -0.302   0.000  0.00  0.00    +0.000 C 
ATOM     23  C   UNL     1      -2.843   0.110   0.000  0.00  0.00    +0.000 C 
ENDBRANCH  15  22
ENDBRANCH   1  15
TORSDOF 3
