REMARK  Name = Untitled Document-1
REMARK  31 active torsions:
REMARK  status: ('A' for Active; 'I' for Inactive)
REMARK    1  A    between atoms: C_2  and  C_14
REMARK    2  A    between atoms: C_5  and  O_12
REMARK    3  A    between atoms: C_6  and  O_10
REMARK    4  A    between atoms: C_14  and  C_15
REMARK    5  A    between atoms: C_16  and  C_17
REMARK    6  A    between atoms: C_17  and  C_18
REMARK    7  A    between atoms: C_18  and  C_19
REMARK    8  A    between atoms: C_20  and  C_21
REMARK    9  A    between atoms: C_21  and  C_22
REMARK   10  A    between atoms: C_22  and  C_23
REMARK   11  A    between atoms: C_24  and  C_25
REMARK   12  A    between atoms: C_25  and  C_26
REMARK   13  A    between atoms: C_26  and  C_27
REMARK   14  A    between atoms: C_28  and  C_29
REMARK   15  A    between atoms: C_29  and  C_30
REMARK   16  A    between atoms: C_30  and  C_31
REMARK   17  A    between atoms: C_32  and  C_33
REMARK   18  A    between atoms: C_33  and  C_34
REMARK   19  A    between atoms: C_34  and  C_35
REMARK   20  A    between atoms: C_36  and  C_37
REMARK   21  A    between atoms: C_37  and  C_38
REMARK   22  A    between atoms: C_38  and  C_39
REMARK   23  A    between atoms: C_40  and  C_41
REMARK   24  A    between atoms: C_41  and  C_42
REMARK   25  A    between atoms: C_42  and  C_43
REMARK   26  A    between atoms: C_44  and  C_45
REMARK   27  A    between atoms: C_45  and  C_46
REMARK   28  A    between atoms: C_46  and  C_47
REMARK   29  A    between atoms: C_48  and  C_49
REMARK   30  A    between atoms: C_49  and  C_50
REMARK   31  A    between atoms: C_50  and  C_51
REMARK                            x       y       z     vdW  Elec       q    Type
REMARK                         _______ _______ _______ _____ _____    ______ ____
ROOT
ATOM      1  C   UNL     1      -2.858  -0.619   0.000  0.00  0.00    +0.000 C 
ATOM      2  C   UNL     1      -2.143  -1.031   0.000  0.00  0.00    +0.000 C 
ATOM      3  C   UNL     1      -2.143  -1.856   0.000  0.00  0.00    +0.000 C 
ENDROOT
BRANCH   2   4
ATOM      4  C   UNL     1      -1.429  -0.619   0.000  0.00  0.00    +0.000 C 
BRANCH   4   5
ATOM      5  C   UNL     1      -0.715  -1.031   0.000  0.00  0.00    +0.000 C 
BRANCH   5   6
ATOM      6  C   UNL     1       0.000  -0.619   0.000  0.00  0.00    +0.000 C 
ATOM      7  C   UNL     1       0.715  -1.031   0.000  0.00  0.00    +0.000 C 
ATOM      8  C   UNL     1       0.715  -1.856   0.000  0.00  0.00    +0.000 C 
BRANCH   7   9
ATOM      9  C   UNL     1       1.429  -0.619   0.000  0.00  0.00    +0.000 C 
BRANCH   9  10
ATOM     10  C   UNL     1       2.143  -1.031   0.000  0.00  0.00    +0.000 C 
BRANCH  10  11
ATOM     11  C   UNL     1       2.858  -0.619   0.000  0.00  0.00    +0.000 C 
ATOM     12  C   UNL     1       3.572  -1.031   0.000  0.00  0.00    +0.000 C 
ATOM     13  C   UNL     1       3.572  -1.856   0.000  0.00  0.00    +0.000 C 
BRANCH  12  14
ATOM     14  C   UNL     1       4.287  -0.619   0.000  0.00  0.00    +0.000 C 
BRANCH  14  15
ATOM     15  C   UNL     1       5.001  -1.031   0.000  0.00  0.00    +0.000 C 
BRANCH  15  16
ATOM     16  C   UNL     1       5.716  -0.619   0.000  0.00  0.00    +0.000 C 
ATOM     17  C   UNL     1       6.430  -1.031   0.000  0.00  0.00    +0.000 C 
ATOM     18  C   UNL     1       6.430  -1.856   0.000  0.00  0.00    +0.000 C 
BRANCH  17  19
ATOM     19  C   UNL     1       7.145  -0.619   0.000  0.00  0.00    +0.000 C 
BRANCH  19  20
ATOM     20  C   UNL     1       7.859  -1.031   0.000  0.00  0.00    +0.000 C 
BRANCH  20  21
ATOM     21  C   UNL     1       8.574  -0.619   0.000  0.00  0.00    +0.000 C 
ATOM     22  C   UNL     1       9.288  -1.031   0.000  0.00  0.00    +0.000 C 
ATOM     23  C   UNL     1       9.288  -1.856   0.000  0.00  0.00    +0.000 C 
BRANCH  22  24
ATOM     24  C   UNL     1      10.003  -0.619   0.000  0.00  0.00    +0.000 C 
BRANCH  24  25
ATOM     25  C   UNL     1      10.717  -1.031   0.000  0.00  0.00    +0.000 C 
BRANCH  25  26
ATOM     26  C   UNL     1      11.431  -0.619   0.000  0.00  0.00    +0.000 C 
ATOM     27  C   UNL     1      12.146  -1.031   0.000  0.00  0.00    +0.000 C 
ATOM     28  C   UNL     1      12.146  -1.856   0.000  0.00  0.00    +0.000 C 
BRANCH  27  29
ATOM     29  C   UNL     1      12.861  -0.619   0.000  0.00  0.00    +0.000 C 
BRANCH  29  30
ATOM     30  C   UNL     1      13.575  -1.031   0.000  0.00  0.00    +0.000 C 
BRANCH  30  31
ATOM     31  C   UNL     1      14.289  -0.619   0.000  0.00  0.00    +0.000 C 
ATOM     32  C   UNL     1      15.004  -1.031   0.000  0.00  0.00    +0.000 C 
ATOM     33  C   UNL     1      15.718  -0.619   0.000  0.00  0.00    +0.000 C 
ATOM     34  C   UNL     1      15.004  -1.856   0.000  0.00  0.00    +0.000 C 
ENDBRANCH  30  31
ENDBRANCH  29  30
ENDBRANCH  27  29
ENDBRANCH  25  26
ENDBRANCH  24  25
ENDBRANCH  22  24
ENDBRANCH  20  21
ENDBRANCH  19  20
ENDBRANCH  17  19
ENDBRANCH  15  16
ENDBRANCH  14  15
ENDBRANCH  12  14
ENDBRANCH  10  11
ENDBRANCH   9  10
ENDBRANCH   7   9
ENDBRANCH   5   6
ENDBRANCH   4   5
ENDBRANCH   2   4
BRANCH   1  35
ATOM     35  C   UNL     1      -3.572  -1.031   0.000  0.00  0.00    +0.000 C 
BRANCH  35  36
ATOM     36  C   UNL     1      -4.287  -0.619   0.000  0.00  0.00    +0.000 C 
BRANCH  36  38
ATOM     37  C   UNL     1      -5.716  -0.619   0.000  0.00  0.00    +0.000 C 
ATOM     38  C   UNL     1      -5.001  -1.031   0.000  0.00  0.00    +0.000 C 
ATOM     39  C   UNL     1      -5.001  -1.856   0.000  0.00  0.00    +0.000 C 
BRANCH  37  40
ATOM     40  C   UNL     1      -6.430  -1.031   0.000  0.00  0.00    +0.000 C 
BRANCH  40  41
ATOM     41  C   UNL     1      -7.145  -0.619   0.000  0.00  0.00    +0.000 C 
BRANCH  41  43
ATOM     42  C   UNL     1      -8.574  -0.619   0.000  0.00  0.00    +0.000 C 
ATOM     43  C   UNL     1      -7.859  -1.031   0.000  0.00  0.00    +0.000 C 
ATOM     44  C   UNL     1      -7.859  -1.856   0.000  0.00  0.00    +0.000 C 
BRANCH  42  45
ATOM     45  C   UNL     1      -9.288  -1.031   0.000  0.00  0.00    +0.000 C 
BRANCH  45  46
ATOM     46  C   UNL     1     -10.003  -0.619   0.000  0.00  0.00    +0.000 C 
BRANCH  46  48
ATOM     47  C   UNL     1     -11.431  -0.619   0.000  0.00  0.00    +0.000 C 
ATOM     48  C   UNL     1     -10.717  -1.031   0.000  0.00  0.00    +0.000 C 
ATOM     49  C   UNL     1     -10.717  -1.856   0.000  0.00  0.00    +0.000 C 
BRANCH  47  50
ATOM     50  C   UNL     1     -12.146  -1.031   0.000  0.00  0.00    +0.000 C 
BRANCH  50  52
ATOM     51  C   UNL     1     -12.861   0.206   0.000  0.00  0.00    +0.000 C 
ATOM     52  C   UNL     1     -12.861  -0.619   0.000  0.00  0.00    +0.000 C 
ATOM     53  C   UNL     1     -13.575  -1.031   0.000  0.00  0.00    +0.000 C 
ATOM     54  C   UNL     1     -14.289  -0.619   0.000  0.00  0.00    +0.000 C 
ATOM     55  C   UNL     1     -14.289   0.206   0.000  0.00  0.00    +0.000 C 
ATOM     56  C   UNL     1     -13.575   0.619   0.000  0.00  0.00    +0.000 C 
ATOM     57  O   UNL     1     -12.146   0.619   0.000  0.00  0.00    +0.000 OA
ATOM     58  O   UNL     1     -15.004  -1.031   0.000  0.00  0.00    +0.000 OA
ATOM     59  C   UNL     1     -13.575  -1.856   0.000  0.00  0.00    +0.000 C 
BRANCH  55  60
ATOM     60  O   UNL     1     -15.004   0.619   0.000  0.00  0.00    +0.000 OA
ATOM     61  C   UNL     1     -15.718   0.206   0.000  0.00  0.00    +0.000 C 
ENDBRANCH  55  60
BRANCH  56  62
ATOM     62  O   UNL     1     -13.575   1.444   0.000  0.00  0.00    +0.000 OA
ATOM     63  C   UNL     1     -14.289   1.856   0.000  0.00  0.00    +0.000 C 
ENDBRANCH  56  62
ENDBRANCH  50  52
ENDBRANCH  47  50
ENDBRANCH  46  48
ENDBRANCH  45  46
ENDBRANCH  42  45
ENDBRANCH  41  43
ENDBRANCH  40  41
ENDBRANCH  37  40
ENDBRANCH  36  38
ENDBRANCH  35  36
ENDBRANCH   1  35
TORSDOF 31
