REMARK  Name = Untitled Document-7
REMARK  0 active torsions:
REMARK  status: ('A' for Active; 'I' for Inactive)
REMARK                            x       y       z     vdW  Elec       q    Type
REMARK                         _______ _______ _______ _____ _____    ______ ____
ROOT
ATOM      1  C   UNL     1      -2.064  -0.313   0.000  0.00  0.00    +0.000 C 
ATOM      2  C   UNL     1      -2.064  -1.139   0.000  0.00  0.00    +0.000 C 
ATOM      3  C   UNL     1      -1.349  -1.551   0.000  0.00  0.00    +0.000 C 
ATOM      4  C   UNL     1      -0.635  -1.139   0.000  0.00  0.00    +0.000 C 
ATOM      5  C   UNL     1      -0.635  -0.313   0.000  0.00  0.00    +0.000 C 
ATOM      6  C   UNL     1      -1.349   0.099   0.000  0.00  0.00    +0.000 C 
ATOM      7  C   UNL     1       0.080  -1.551   0.000  0.00  0.00    +0.000 C 
ATOM      8  C   UNL     1       0.794  -1.139   0.000  0.00  0.00    +0.000 C 
ATOM      9  C   UNL     1       0.794  -0.313   0.000  0.00  0.00    +0.000 C 
ATOM     10  C   UNL     1       0.080   0.099   0.000  0.00  0.00    +0.000 C 
ATOM     11  C   UNL     1       1.509   0.099   0.000  0.00  0.00    +0.000 C 
ATOM     12  C   UNL     1       1.509   0.924   0.000  0.00  0.00    +0.000 C 
ATOM     13  C   UNL     1       0.794   1.337   0.000  0.00  0.00    +0.000 C 
ATOM     14  C   UNL     1       0.080   0.924   0.000  0.00  0.00    +0.000 C 
ATOM     15  C   UNL     1       2.293  -0.156   0.000  0.00  0.00    +0.000 C 
ATOM     16  C   UNL     1       2.778   0.511   0.000  0.00  0.00    +0.000 C 
ATOM     17  C   UNL     1       2.293   1.179   0.000  0.00  0.00    +0.000 C 
ATOM     18  O   UNL     1      -2.778  -1.551   0.000  0.00  0.00    +0.000 OA
ATOM     19  C   UNL     1      -0.635   0.511   0.000  0.00  0.00    +0.000 C 
ATOM     20  C   UNL     1       1.595   1.744   0.000  0.00  0.00    +0.000 C 
ATOM     21  O   UNL     1       2.548   1.964   0.000  0.00  0.00    +0.000 OA
ENDROOT
TORSDOF 0
