REMARK  Name = Untitled Document-7
REMARK  0 active torsions:
REMARK  status: ('A' for Active; 'I' for Inactive)
REMARK                            x       y       z     vdW  Elec       q    Type
REMARK                         _______ _______ _______ _____ _____    ______ ____
ROOT
ATOM      1  C   UNL     1       0.537   0.890   0.000  0.00  0.00    +0.000 C 
ATOM      2  C   UNL     1      -1.979   1.292   0.000  0.00  0.00    +0.000 C 
ATOM      3  C   UNL     1       0.566  -1.292   0.000  0.00  0.00    +0.000 C 
ATOM      4  C   UNL     1      -0.246  -1.147   0.000  0.00  0.00    +0.000 C 
ATOM      5  C   UNL     1      -1.990  -0.732   0.000  0.00  0.00    +0.000 C 
ATOM      6  C   UNL     1      -2.673  -0.269   0.000  0.00  0.00    +0.000 C 
ATOM      7  C   UNL     1       2.161   0.600   0.000  0.00  0.00    +0.000 C 
ATOM      8  C   UNL     1      -0.275   1.035   0.000  0.00  0.00    +0.000 C 
ATOM      9  C   UNL     1       1.349   0.745   0.000  0.00  0.00    +0.000 C 
ATOM     10  C   UNL     1      -1.087   1.181   0.000  0.00  0.00    +0.000 C 
ATOM     11  C   UNL     1       1.910  -0.807   0.000  0.00  0.00    +0.000 C 
ATOM     12  C   UNL     1       1.098  -0.662   0.000  0.00  0.00    +0.000 C 
ATOM     13  C   UNL     1       2.442  -0.176   0.000  0.00  0.00    +0.000 C 
ATOM     14  C   UNL     1      -0.526  -0.371   0.000  0.00  0.00    +0.000 C 
ATOM     15  C   UNL     1      -1.339  -0.226   0.000  0.00  0.00    +0.000 C 
ATOM     16  C   UNL     1       0.005   0.260   0.000  0.00  0.00    +0.000 C 
ATOM     17  C   UNL     1      -2.443   0.523   0.000  0.00  0.00    +0.000 C 
ATOM     18  C   UNL     1       0.817   0.114   0.000  0.00  0.00    +0.000 C 
ATOM     19  C   UNL     1      -1.619   0.550   0.000  0.00  0.00    +0.000 C 
ATOM     20  O   UNL     1       3.254  -0.321   0.000  0.00  0.00    +0.000 OA
ATOM     21  O   UNL     1      -2.950   1.174   0.000  0.00  0.00    +0.000 OA
ENDROOT
TORSDOF 0
