REMARK  Name = Untitled Document-1
REMARK  4 active torsions:
REMARK  status: ('A' for Active; 'I' for Inactive)
REMARK    1  A    between atoms: C_1  and  C_3
REMARK    2  A    between atoms: C_1  and  C_8
REMARK    3  A    between atoms: C_3  and  O_4
REMARK    4  A    between atoms: O_4  and  C_5
REMARK                            x       y       z     vdW  Elec       q    Type
REMARK                         _______ _______ _______ _____ _____    ______ ____
ROOT
ATOM      1  C   UNK     1       0.715  -0.206   0.000  0.00  0.00    +0.000 C 
ATOM      2  N   UNK     1       0.715  -1.031   0.000  0.00  0.00    +0.000 NA
ENDROOT
BRANCH   1   3
ATOM      3  C   UNK     1       1.429   0.206   0.000  0.00  0.00    +0.000 C 
ATOM      4  O   UNK     1       1.429   1.031   0.000  0.00  0.00    +0.000 OA
ATOM      5  O   UNK     1       2.143  -0.206   0.000  0.00  0.00    +0.000 OA
ENDBRANCH   1   3
BRANCH   1   6
ATOM      6  C   UNK     1       0.000   0.206   0.000  0.00  0.00    +0.000 C 
BRANCH   6   7
ATOM      7  O   UNK     1      -0.715  -0.206   0.000  0.00  0.00    +0.000 OA
BRANCH   7   8
ATOM      8  C   UNK     1      -1.429   0.206   0.000  0.00  0.00    +0.000 C 
ATOM      9  O   UNK     1      -1.429   1.031   0.000  0.00  0.00    +0.000 OA
ATOM     10  C   UNK     1      -2.143  -0.206   0.000  0.00  0.00    +0.000 C 
ENDBRANCH   7   8
ENDBRANCH   6   7
ENDBRANCH   1   6
TORSDOF 4
