REMARK  Name = Untitled Document-1
REMARK  2 active torsions:
REMARK  status: ('A' for Active; 'I' for Inactive)
REMARK    1  A    between atoms: C_1  and  C_7
REMARK    2  A    between atoms: C_4  and  N_10
REMARK                            x       y       z     vdW  Elec       q    Type
REMARK                         _______ _______ _______ _____ _____    ______ ____
ROOT
ATOM      1  C   UNL     1      -1.429   0.412   0.000  0.00  0.00    +0.000 C 
ATOM      2  C   UNL     1      -1.429  -0.412   0.000  0.00  0.00    +0.000 C 
ATOM      3  C   UNL     1      -0.715  -0.825   0.000  0.00  0.00    +0.000 C 
ATOM      4  C   UNL     1       0.000  -0.412   0.000  0.00  0.00    +0.000 C 
ATOM      5  C   UNL     1       0.000   0.412   0.000  0.00  0.00    +0.000 C 
ATOM      6  O   UNL     1      -0.715   0.825   0.000  0.00  0.00    +0.000 OA
ATOM      7  O   UNL     1      -2.143  -0.825   0.000  0.00  0.00    +0.000 OA
ATOM      8  O   UNL     1      -0.715  -1.650   0.000  0.00  0.00    +0.000 OA
ATOM      9  O   UNL     1       0.715   0.825   0.000  0.00  0.00    +0.000 OA
ENDROOT
BRANCH   4  10
ATOM     10  N   UNL     1       0.715  -0.825   0.000  0.00  0.00    +0.000 NA
ATOM     11  C   UNL     1       1.429  -0.412   0.000  0.00  0.00    +0.000 C 
ATOM     12  C   UNL     1       2.143  -0.825   0.000  0.00  0.00    +0.000 C 
ATOM     13  O   UNL     1       1.429   0.412   0.000  0.00  0.00    +0.000 OA
ENDBRANCH   4  10
BRANCH   1  14
ATOM     14  C   UNL     1      -2.143   0.825   0.000  0.00  0.00    +0.000 C 
ATOM     15  O   UNL     1      -2.143   1.650   0.000  0.00  0.00    +0.000 OA
ENDBRANCH   1  14
TORSDOF 2
