REMARK  Name = Uridine diphosphate acetylgalactosamine-4-sulfate.mol
REMARK  6 active torsions:
REMARK  status: ('A' for Active; 'I' for Inactive)
REMARK    1  A    between atoms: C_1  and  C_2
REMARK    2  A    between atoms: C_1  and  O_19
REMARK    3  A    between atoms: C_7  and  N_9
REMARK    4  A    between atoms: P_17  and  O_19
REMARK    5  A    between atoms: P_17  and  O_22
REMARK    6  A    between atoms: O_22  and  P_23
REMARK                            x       y       z     vdW  Elec       q    Type
REMARK                         _______ _______ _______ _____ _____    ______ ____
ROOT
ATOM      1  C   UNL     1       0.865  -0.405   0.000  0.00  0.00    +0.000 C 
ATOM      2  C   UNL     1       0.779  -1.226   0.000  0.00  0.00    +0.000 C 
ATOM      3  O   UNL     1       1.392  -1.778   0.000  0.00  0.00    +0.000 OA
ATOM      4  C   UNL     1      -0.028  -1.397   0.000  0.00  0.00    +0.000 C 
ATOM      5  O   UNL     1      -0.364  -2.151   0.000  0.00  0.00    +0.000 OA
ATOM      6  C   UNL     1      -0.441  -0.683   0.000  0.00  0.00    +0.000 C 
ATOM      7  O   UNL     1       0.111  -0.070   0.000  0.00  0.00    +0.000 OA
ENDROOT
BRANCH   6   8
ATOM      8  N   UNL     1      -1.261  -0.596   0.000  0.00  0.00    +0.000 N 
ATOM      9  C   UNL     1      -1.746  -1.264   0.000  0.00  0.00    +0.000 A 
ATOM     10  O   UNL     1      -1.411  -2.018   0.000  0.00  0.00    +0.000 OA
ATOM     11  N   UNL     1      -2.567  -1.178   0.000  0.00  0.00    +0.000 NA
ATOM     12  C   UNL     1      -2.902  -0.424   0.000  0.00  0.00    +0.000 A 
ATOM     13  O   UNL     1      -3.723  -0.338   0.000  0.00  0.00    +0.000 OA
ATOM     14  C   UNL     1      -2.417   0.243   0.000  0.00  0.00    +0.000 A 
ATOM     15  C   UNL     1      -1.597   0.157   0.000  0.00  0.00    +0.000 A 
ENDBRANCH   6   8
BRANCH   1  16
ATOM     16  C   UNL     1       1.579   0.007   0.000  0.00  0.00    +0.000 C 
BRANCH  16  17
ATOM     17  O   UNL     1       2.294  -0.405   0.000  0.00  0.00    +0.000 OA
BRANCH  17  18
ATOM     18  P   UNL     1       3.008   0.007   0.000  0.00  0.00    +0.000 P 
ATOM     19  O   UNL     1       3.723   0.420   0.000  0.00  0.00    +0.000 OA
ATOM     20  O   UNL     1       3.421  -0.707   0.000  0.00  0.00    +0.000 OA
BRANCH  18  21
ATOM     21  O   UNL     1       2.596   0.722   0.000  0.00  0.00    +0.000 OA
BRANCH  21  23
ATOM     22  O   UNL     1       2.294   1.849   0.000  0.00  0.00    +0.000 OA
ATOM     23  P   UNL     1       3.008   1.436   0.000  0.00  0.00    +0.000 P 
ATOM     24  O   UNL     1       3.421   2.151   0.000  0.00  0.00    +0.000 OA
ATOM     25  O   UNL     1       3.723   1.024   0.000  0.00  0.00    +0.000 OA
ENDBRANCH  21  23
ENDBRANCH  18  21
ENDBRANCH  17  18
ENDBRANCH  16  17
ENDBRANCH   1  16
TORSDOF 6
