REMARK  Name = Urocanic acid.mol
REMARK  8 active torsions:
REMARK  status: ('A' for Active; 'I' for Inactive)
REMARK    1  A    between atoms: C_1  and  C_2
REMARK    2  A    between atoms: C_1  and  O_19
REMARK    3  A    between atoms: C_7  and  N_9
REMARK    4  A    between atoms: P_17  and  O_19
REMARK    5  A    between atoms: P_17  and  O_22
REMARK    6  A    between atoms: O_22  and  P_23
REMARK    7  A    between atoms: P_23  and  O_26
REMARK    8  A    between atoms: O_26  and  P_27
REMARK                            x       y       z     vdW  Elec       q    Type
REMARK                         _______ _______ _______ _____ _____    ______ ____
ROOT
ATOM      1  C   UNL     1      -0.224   0.564   0.000  0.00  0.00    +0.000 C 
ATOM      2  C   UNL     1       0.261   1.231   0.000  0.00  0.00    +0.000 C 
ATOM      3  O   UNL     1       0.006   2.015   0.000  0.00  0.00    +0.000 OA
ATOM      4  C   UNL     1       1.046   0.976   0.000  0.00  0.00    +0.000 C 
ATOM      5  O   UNL     1       1.713   1.461   0.000  0.00  0.00    +0.000 OA
ATOM      6  C   UNL     1       1.046   0.151   0.000  0.00  0.00    +0.000 C 
ATOM      7  O   UNL     1       0.261  -0.104   0.000  0.00  0.00    +0.000 OA
ENDROOT
BRANCH   6   8
ATOM      8  N   UNL     1       1.713  -0.334   0.000  0.00  0.00    +0.000 N 
ATOM      9  C   UNL     1       2.467   0.002   0.000  0.00  0.00    +0.000 A 
ATOM     10  O   UNL     1       2.553   0.822   0.000  0.00  0.00    +0.000 OA
ATOM     11  N   UNL     1       3.134  -0.483   0.000  0.00  0.00    +0.000 NA
ATOM     12  C   UNL     1       3.048  -1.304   0.000  0.00  0.00    +0.000 A 
ATOM     13  O   UNL     1       3.715  -1.789   0.000  0.00  0.00    +0.000 OA
ATOM     14  C   UNL     1       2.294  -1.639   0.000  0.00  0.00    +0.000 A 
ATOM     15  C   UNL     1       1.627  -1.154   0.000  0.00  0.00    +0.000 A 
ENDBRANCH   6   8
BRANCH   1  16
ATOM     16  C   UNL     1      -1.049   0.564   0.000  0.00  0.00    +0.000 C 
BRANCH  16  17
ATOM     17  O   UNL     1      -1.461   1.278   0.000  0.00  0.00    +0.000 OA
BRANCH  17  18
ATOM     18  P   UNL     1      -2.286   1.278   0.000  0.00  0.00    +0.000 P 
ATOM     19  O   UNL     1      -3.111   1.278   0.000  0.00  0.00    +0.000 OA
ATOM     20  O   UNL     1      -2.286   2.103   0.000  0.00  0.00    +0.000 OA
BRANCH  18  21
ATOM     21  O   UNL     1      -2.286   0.453   0.000  0.00  0.00    +0.000 OA
BRANCH  21  22
ATOM     22  P   UNL     1      -3.001   0.041   0.000  0.00  0.00    +0.000 P 
ATOM     23  O   UNL     1      -3.715  -0.372   0.000  0.00  0.00    +0.000 OA
ATOM     24  O   UNL     1      -3.413   0.755   0.000  0.00  0.00    +0.000 OA
BRANCH  22  25
ATOM     25  O   UNL     1      -2.588  -0.674   0.000  0.00  0.00    +0.000 OA
BRANCH  25  27
ATOM     26  O   UNL     1      -2.286  -1.801   0.000  0.00  0.00    +0.000 OA
ATOM     27  P   UNL     1      -3.001  -1.389   0.000  0.00  0.00    +0.000 P 
ATOM     28  O   UNL     1      -3.413  -2.103   0.000  0.00  0.00    +0.000 OA
ATOM     29  O   UNL     1      -3.715  -0.976   0.000  0.00  0.00    +0.000 OA
ENDBRANCH  25  27
ENDBRANCH  22  25
ENDBRANCH  21  22
ENDBRANCH  18  21
ENDBRANCH  17  18
ENDBRANCH  16  17
ENDBRANCH   1  16
TORSDOF 8
