REMARK  Name = VG2
REMARK  6 active torsions:
REMARK  status: ('A' for Active; 'I' for Inactive)
REMARK    1  A    between atoms: N_1  and  C_7
REMARK    2  A    between atoms: C_12  and  N_13
REMARK    3  A    between atoms: C_14  and  C_16
REMARK    4  A    between atoms: C_20  and  O_21
REMARK    5  A    between atoms: O_21  and  C_22
REMARK    6  A    between atoms: C_22  and  C_23
REMARK                            x       y       z     vdW  Elec       q    Type
REMARK                         _______ _______ _______ _____ _____    ______ ____
ROOT
ATOM      1  N   UNL     1      14.059   5.899   0.000  0.00  0.00    +0.000 NA
ATOM      2  C   UNL     1      14.774   6.311   0.000  0.00  0.00    +0.000 C 
ATOM      3  O   UNL     1      14.774   7.136   0.000  0.00  0.00    +0.000 OA
ENDROOT
BRANCH   2   4
ATOM      4  C   UNL     1      15.489   5.899   0.000  0.00  0.00    +0.000 A 
ATOM      5  C   UNL     1      16.203   6.311   0.000  0.00  0.00    +0.000 A 
ATOM      6  C   UNL     1      16.917   5.899   0.000  0.00  0.00    +0.000 A 
ATOM      7  C   UNL     1      17.632   6.311   0.000  0.00  0.00    +0.000 C 
ATOM      8  C   UNL     1      16.917   5.074   0.000  0.00  0.00    +0.000 A 
ATOM      9  C   UNL     1      16.203   4.661   0.000  0.00  0.00    +0.000 A 
ATOM     10  C   UNL     1      16.203   3.836   0.000  0.00  0.00    +0.000 C 
ATOM     11  C   UNL     1      15.489   5.074   0.000  0.00  0.00    +0.000 A 
BRANCH   8  12
ATOM     12  O   UNL     1      17.632   4.661   0.000  0.00  0.00    +0.000 OA
BRANCH  12  13
ATOM     13  C   UNL     1      18.346   5.074   0.000  0.00  0.00    +0.000 C 
BRANCH  13  14
ATOM     14  C   UNL     1      19.061   4.661   0.000  0.00  0.00    +0.000 C 
ATOM     15  N   UNL     1      19.775   5.074   0.000  0.00  0.00    +0.000 NA
ENDBRANCH  13  14
ENDBRANCH  12  13
ENDBRANCH   8  12
ENDBRANCH   2   4
BRANCH   1  21
ATOM     16  C   UNL     1      11.916   6.311   0.000  0.00  0.00    +0.000 A 
ATOM     17  C   UNL     1      11.916   7.136   0.000  0.00  0.00    +0.000 A 
ATOM     18  C   UNL     1      12.631   7.548   0.000  0.00  0.00    +0.000 A 
ATOM     19 CL   UNL     1      12.631   8.373   0.000  0.00  0.00    +0.000 Cl
ATOM     20  C   UNL     1      13.345   7.136   0.000  0.00  0.00    +0.000 A 
ATOM     21  C   UNL     1      13.345   6.311   0.000  0.00  0.00    +0.000 A 
ATOM     22  C   UNL     1      12.631   5.899   0.000  0.00  0.00    +0.000 A 
BRANCH  16  23
ATOM     23  N   UNL     1      11.202   5.899   0.000  0.00  0.00    +0.000 N 
ATOM     24  C   UNL     1      11.202   5.074   0.000  0.00  0.00    +0.000 C 
ATOM     25  C   UNL     1      10.487   4.661   0.000  0.00  0.00    +0.000 C 
ATOM     26  C   UNL     1       9.773   5.074   0.000  0.00  0.00    +0.000 C 
ATOM     27  C   UNL     1       9.773   5.899   0.000  0.00  0.00    +0.000 C 
ATOM     28  C   UNL     1      10.487   6.311   0.000  0.00  0.00    +0.000 C 
ENDBRANCH  16  23
ENDBRANCH   1  21
TORSDOF 6
