REMARK  Name = VGA
REMARK  2 active torsions:
REMARK  status: ('A' for Active; 'I' for Inactive)
REMARK    1  A    between atoms: C_3  and  C_22
REMARK    2  A    between atoms: C_4  and  C_12
REMARK                            x       y       z     vdW  Elec       q    Type
REMARK                         _______ _______ _______ _____ _____    ______ ____
ROOT
ATOM      1  N   UNL     1      -0.535   1.161   0.000  0.00  0.00    +0.000 NA
ATOM      2  C   UNL     1       0.269   0.977   0.000  0.00  0.00    +0.000 C 
ATOM      3  C   UNL     1       0.627   0.234   0.000  0.00  0.00    +0.000 C 
ATOM      4  C   UNL     1      -0.535  -0.693   0.000  0.00  0.00    +0.000 C 
ATOM      5  N   UNL     1       0.269  -0.510   0.000  0.00  0.00    +0.000 NA
ATOM      6  C   UNL     1      -1.180  -0.179   0.000  0.00  0.00    +0.000 A 
ATOM      7  C   UNL     1      -1.180   0.646   0.000  0.00  0.00    +0.000 A 
ATOM      8  C   UNL     1      -1.895   1.059   0.000  0.00  0.00    +0.000 A 
ATOM      9  C   UNL     1      -2.609   0.646   0.000  0.00  0.00    +0.000 A 
ATOM     10  C   UNL     1      -2.609  -0.179   0.000  0.00  0.00    +0.000 A 
ATOM     11  C   UNL     1      -1.895  -0.591   0.000  0.00  0.00    +0.000 A 
ATOM     12  N   UNL     1       0.784   1.622   0.000  0.00  0.00    +0.000 N 
ATOM     13  C   UNL     1       0.691   2.442   0.000  0.00  0.00    +0.000 C 
ATOM     14  C   UNL     1       1.511   2.534   0.000  0.00  0.00    +0.000 C 
ATOM     15  C   UNL     1       1.603   1.714   0.000  0.00  0.00    +0.000 C 
ATOM     16  O   UNL     1       2.025   3.179   0.000  0.00  0.00    +0.000 OA
ENDROOT
BRANCH   4  17
ATOM     17  C   UNL     1      -0.719  -1.498   0.000  0.00  0.00    +0.000 A 
ATOM     18  C   UNL     1      -0.114  -2.059   0.000  0.00  0.00    +0.000 A 
ATOM     19  C   UNL     1      -0.297  -2.863   0.000  0.00  0.00    +0.000 A 
ATOM     20  C   UNL     1      -1.086  -3.106   0.000  0.00  0.00    +0.000 A 
ATOM     21  C   UNL     1      -1.691  -2.545   0.000  0.00  0.00    +0.000 A 
ATOM     22  C   UNL     1      -1.507  -1.741   0.000  0.00  0.00    +0.000 A 
ENDBRANCH   4  17
BRANCH   3  23
ATOM     23  C   UNL     1       1.452   0.234   0.000  0.00  0.00    +0.000 A 
ATOM     24  S   UNL     1       1.937   0.901   0.000  0.00  0.00    +0.000 S 
ATOM     25  C   UNL     1       2.722   0.646   0.000  0.00  0.00    +0.000 A 
ATOM     26  C   UNL     1       2.722  -0.179   0.000  0.00  0.00    +0.000 A 
ATOM     27  C   UNL     1       1.937  -0.434   0.000  0.00  0.00    +0.000 A 
ENDBRANCH   3  23
TORSDOF 2
