REMARK  Name = VGH
REMARK  5 active torsions:
REMARK  status: ('A' for Active; 'I' for Inactive)
REMARK    1  A    between atoms: C_7  and  C_10
REMARK    2  A    between atoms: C_10  and  O_12
REMARK    3  A    between atoms: O_12  and  C_13
REMARK    4  A    between atoms: C_19  and  C_20
REMARK    5  A    between atoms: N_23  and  C_25
REMARK                            x       y       z     vdW  Elec       q    Type
REMARK                         _______ _______ _______ _____ _____    ______ ____
ROOT
ATOM      1  C   UNL     1      -0.350   1.176   0.000  0.00  0.00    +0.000 A 
ATOM      2  C   UNL     1      -0.350   0.351   0.000  0.00  0.00    +0.000 A 
ATOM      3  C   UNL     1      -1.065   1.588   0.000  0.00  0.00    +0.000 A 
ATOM      4  N   UNL     1      -1.065   2.413   0.000  0.00  0.00    +0.000 NA
ATOM      5  N   UNL     1      -1.779   1.176   0.000  0.00  0.00    +0.000 NA
ATOM      6  C   UNL     1      -1.779   0.351   0.000  0.00  0.00    +0.000 A 
ATOM      7  C   UNL     1      -1.065  -0.062   0.000  0.00  0.00    +0.000 A 
ENDROOT
BRANCH   7   8
ATOM      8  C   UNL     1      -1.065  -0.887   0.000  0.00  0.00    +0.000 A 
ATOM      9  C   UNL     1      -0.397  -1.372   0.000  0.00  0.00    +0.000 A 
ATOM     10  C   UNL     1      -1.732  -1.372   0.000  0.00  0.00    +0.000 A 
ATOM     11  N   UNL     1      -1.477  -2.156   0.000  0.00  0.00    +0.000 N 
ATOM     12  N   UNL     1      -0.652  -2.156   0.000  0.00  0.00    +0.000 NA
BRANCH  11  13
ATOM     13  C   UNL     1      -1.962  -2.824   0.000  0.00  0.00    +0.000 C 
ATOM     14  C   UNL     1      -1.627  -3.578   0.000  0.00  0.00    +0.000 C 
ATOM     15  C   UNL     1      -2.112  -4.245   0.000  0.00  0.00    +0.000 C 
ATOM     16  N   UNL     1      -2.932  -4.159   0.000  0.00  0.00    +0.000 NA
ATOM     17  C   UNL     1      -3.268  -3.405   0.000  0.00  0.00    +0.000 C 
ATOM     18  C   UNL     1      -2.783  -2.738   0.000  0.00  0.00    +0.000 C 
ENDBRANCH  11  13
ENDBRANCH   7   8
BRANCH   1  19
ATOM     19  O   UNL     1       0.364   1.588   0.000  0.00  0.00    +0.000 OA
BRANCH  19  20
ATOM     20  C   UNL     1       0.364   2.413   0.000  0.00  0.00    +0.000 C 
ATOM     21  C   UNL     1      -0.350   2.826   0.000  0.00  0.00    +0.000 C 
BRANCH  20  28
ATOM     22 CL   UNL     1       0.364   4.063   0.000  0.00  0.00    +0.000 Cl
ATOM     23  C   UNL     1       1.079   3.651   0.000  0.00  0.00    +0.000 A 
ATOM     24  C   UNL     1       1.793   4.063   0.000  0.00  0.00    +0.000 A 
ATOM     25  C   UNL     1       2.507   3.651   0.000  0.00  0.00    +0.000 A 
ATOM     26  C   UNL     1       2.507   2.826   0.000  0.00  0.00    +0.000 A 
ATOM     27  F   UNL     1       3.222   2.413   0.000  0.00  0.00    +0.000 F 
ATOM     28  C   UNL     1       1.079   2.826   0.000  0.00  0.00    +0.000 A 
ATOM     29  C   UNL     1       1.793   2.413   0.000  0.00  0.00    +0.000 A 
ATOM     30 CL   UNL     1       1.793   1.588   0.000  0.00  0.00    +0.000 Cl
ENDBRANCH  20  28
ENDBRANCH  19  20
ENDBRANCH   1  19
TORSDOF 5
