REMARK  Name = VGI
REMARK  4 active torsions:
REMARK  status: ('A' for Active; 'I' for Inactive)
REMARK    1  A    between atoms: C_7  and  N_8
REMARK    2  A    between atoms: C_22  and  N_23
REMARK    3  A    between atoms: N_23  and  C_24
REMARK    4  A    between atoms: C_24  and  C_25
REMARK                            x       y       z     vdW  Elec       q    Type
REMARK                         _______ _______ _______ _____ _____    ______ ____
ROOT
ATOM      1  N   UNL     1      -0.200  -1.043   0.000  0.00  0.00    +0.000 N 
ATOM      2  C   UNL     1      -0.200  -0.218   0.000  0.00  0.00    +0.000 C 
ATOM      3  O   UNL     1      -0.914   0.195   0.000  0.00  0.00    +0.000 OA
ATOM      4  C   UNL     1       0.514  -1.455   0.000  0.00  0.00    +0.000 C 
ATOM      5  O   UNL     1       0.514  -2.280   0.000  0.00  0.00    +0.000 OA
ATOM      6  C   UNL     1       1.229  -1.043   0.000  0.00  0.00    +0.000 A 
ATOM      7  C   UNL     1       1.943  -1.455   0.000  0.00  0.00    +0.000 A 
ATOM      8  C   UNL     1       2.658  -1.043   0.000  0.00  0.00    +0.000 A 
ATOM      9  C   UNL     1       2.658  -0.218   0.000  0.00  0.00    +0.000 A 
ATOM     10  C   UNL     1       1.943   0.195   0.000  0.00  0.00    +0.000 A 
ATOM     11  C   UNL     1       1.229  -0.218   0.000  0.00  0.00    +0.000 A 
ATOM     12  C   UNL     1       0.514   0.195   0.000  0.00  0.00    +0.000 A 
ATOM     13  C   UNL     1       0.514   1.020   0.000  0.00  0.00    +0.000 A 
ATOM     14  C   UNL     1       1.229   1.432   0.000  0.00  0.00    +0.000 A 
ATOM     15  C   UNL     1       1.943   1.020   0.000  0.00  0.00    +0.000 A 
ENDROOT
BRANCH   1  22
ATOM     16  C   UNL     1      -0.914  -2.280   0.000  0.00  0.00    +0.000 A 
ATOM     17  C   UNL     1      -1.629  -2.693   0.000  0.00  0.00    +0.000 A 
ATOM     18 BR   UNL     1      -1.629  -3.518   0.000  0.00  0.00    +0.000 Br
ATOM     19  C   UNL     1      -2.343  -2.280   0.000  0.00  0.00    +0.000 A 
ATOM     20  C   UNL     1      -2.343  -1.455   0.000  0.00  0.00    +0.000 A 
ATOM     21  C   UNL     1      -1.629  -1.043   0.000  0.00  0.00    +0.000 A 
ATOM     22  C   UNL     1      -0.914  -1.455   0.000  0.00  0.00    +0.000 A 
ENDBRANCH   1  22
BRANCH  15  23
ATOM     23  N   UNL     1       2.658   1.432   0.000  0.00  0.00    +0.000 NA
BRANCH  23  24
ATOM     24  C   UNL     1       2.658   2.257   0.000  0.00  0.00    +0.000 C 
BRANCH  24  25
ATOM     25  C   UNL     1       3.372   2.670   0.000  0.00  0.00    +0.000 C 
ATOM     26  O   UNL     1       3.372   3.495   0.000  0.00  0.00    +0.000 OA
ENDBRANCH  24  25
ENDBRANCH  23  24
ENDBRANCH  15  23
TORSDOF 4
