REMARK  Name = VII
REMARK  4 active torsions:
REMARK  status: ('A' for Active; 'I' for Inactive)
REMARK    1  A    between atoms: C_6  and  C_7
REMARK    2  A    between atoms: C_9  and  C_10
REMARK    3  A    between atoms: C_13  and  C_14
REMARK    4  A    between atoms: C_17  and  C_18
REMARK                            x       y       z     vdW  Elec       q    Type
REMARK                         _______ _______ _______ _____ _____    ______ ____
ROOT
ATOM      1  C   UNL     1      -0.130   0.433   0.000  0.00  0.00    +0.000 A 
ATOM      2  O   UNL     1       0.538  -0.052   0.000  0.00  0.00    +0.000 OA
ATOM      3  C   UNL     1      -0.797  -0.052   0.000  0.00  0.00    +0.000 A 
ATOM      4  C   UNL     1      -0.542  -0.837   0.000  0.00  0.00    +0.000 A 
ATOM      5  C   UNL     1       0.283  -0.837   0.000  0.00  0.00    +0.000 A 
ENDROOT
BRANCH   1  11
ATOM      6  C   UNL     1      -0.844   1.670   0.000  0.00  0.00    +0.000 A 
ATOM      7  C   UNL     1      -0.844   2.495   0.000  0.00  0.00    +0.000 A 
ATOM      8  C   UNL     1      -0.130   2.908   0.000  0.00  0.00    +0.000 A 
ATOM      9  C   UNL     1       0.585   2.495   0.000  0.00  0.00    +0.000 A 
ATOM     10  C   UNL     1       0.585   1.670   0.000  0.00  0.00    +0.000 A 
ATOM     11  C   UNL     1      -0.130   1.258   0.000  0.00  0.00    +0.000 A 
ENDBRANCH   1  11
BRANCH   5  12
ATOM     12  C   UNL     1       0.768  -1.504   0.000  0.00  0.00    +0.000 A 
ATOM     13  C   UNL     1       1.588  -1.418   0.000  0.00  0.00    +0.000 A 
ATOM     14  C   UNL     1       2.073  -2.085   0.000  0.00  0.00    +0.000 A 
ATOM     15  C   UNL     1       1.738  -2.839   0.000  0.00  0.00    +0.000 A 
ATOM     16  C   UNL     1       0.917  -2.925   0.000  0.00  0.00    +0.000 A 
ATOM     17  C   UNL     1       0.432  -2.258   0.000  0.00  0.00    +0.000 A 
ENDBRANCH   5  12
BRANCH   3  18
ATOM     18  C   UNL     1      -1.582   0.203   0.000  0.00  0.00    +0.000 C 
ATOM     19  O   UNL     1      -2.195  -0.349   0.000  0.00  0.00    +0.000 OA
ATOM     20  O   UNL     1      -1.753   1.010   0.000  0.00  0.00    +0.000 OA
ENDBRANCH   3  18
BRANCH   4  21
ATOM     21  C   UNL     1      -1.027  -1.504   0.000  0.00  0.00    +0.000 C 
ATOM     22  O   UNL     1      -0.692  -2.258   0.000  0.00  0.00    +0.000 OA
ATOM     23  O   UNL     1      -1.848  -1.418   0.000  0.00  0.00    +0.000 OA
ENDBRANCH   4  21
TORSDOF 4
