REMARK  Name = VIN
REMARK  4 active torsions:
REMARK  status: ('A' for Active; 'I' for Inactive)
REMARK    1  A    between atoms: N_4  and  C_10
REMARK    2  A    between atoms: C_10  and  C_17
REMARK    3  A    between atoms: C_28  and  O_29
REMARK    4  A    between atoms: O_29  and  C_30
REMARK                            x       y       z     vdW  Elec       q    Type
REMARK                         _______ _______ _______ _____ _____    ______ ____
ROOT
ATOM      1  C   UNL     1       1.082  -0.103   0.000  0.00  0.00    +0.000 A 
ATOM      2  C   UNL     1       1.418   0.651   0.000  0.00  0.00    +0.000 A 
ATOM      3  C   UNL     1       0.261  -0.188   0.000  0.00  0.00    +0.000 A 
ATOM      4  N   UNL     1       1.695  -0.655   0.000  0.00  0.00    +0.000 N 
ATOM      5  C   UNL     1       0.934   1.319   0.000  0.00  0.00    +0.000 A 
ATOM      6  C   UNL     1       2.239   0.564   0.000  0.00  0.00    +0.000 A 
ATOM      7  C   UNL     1      -0.223   0.479   0.000  0.00  0.00    +0.000 A 
ATOM      8  C   UNL     1      -0.075  -0.942   0.000  0.00  0.00    +0.000 C 
ATOM      9  C   UNL     1       2.409  -0.243   0.000  0.00  0.00    +0.000 A 
ATOM     10  C   UNL     1       0.113   1.233   0.000  0.00  0.00    +0.000 A 
ATOM     11  C   UNL     1       1.106   2.125   0.000  0.00  0.00    +0.000 C 
ATOM     12  C   UNL     1       2.852   1.115   0.000  0.00  0.00    +0.000 A 
ATOM     13  C   UNL     1      -1.044   0.394   0.000  0.00  0.00    +0.000 A 
ATOM     14  C   UNL     1      -0.895  -1.027   0.000  0.00  0.00    +0.000 C 
ATOM     15  C   UNL     1       3.194  -0.499   0.000  0.00  0.00    +0.000 A 
ATOM     16  C   UNL     1      -0.222   1.987   0.000  0.00  0.00    +0.000 C 
ATOM     17  N   UNL     1       0.392   2.538   0.000  0.00  0.00    +0.000 NA
ATOM     18  C   UNL     1       3.636   0.860   0.000  0.00  0.00    +0.000 A 
ATOM     19  C   UNL     1      -1.380  -0.359   0.000  0.00  0.00    +0.000 A 
ATOM     20  C   UNL     1      -1.528   1.062   0.000  0.00  0.00    +0.000 A 
ATOM     21  C   UNL     1       3.807   0.053   0.000  0.00  0.00    +0.000 A 
ATOM     22  O   UNL     1      -1.029   2.159   0.000  0.00  0.00    +0.000 OA
ATOM     23  C   UNL     1      -2.200  -0.445   0.000  0.00  0.00    +0.000 A 
ATOM     24  C   UNL     1      -2.349   0.976   0.000  0.00  0.00    +0.000 A 
ATOM     25  C   UNL     1      -2.685   0.223   0.000  0.00  0.00    +0.000 A 
ENDROOT
BRANCH   4  26
ATOM     26  C   UNL     1       1.608  -1.476   0.000  0.00  0.00    +0.000 C 
BRANCH  26  27
ATOM     27  C   UNL     1       2.275  -1.961   0.000  0.00  0.00    +0.000 C 
ATOM     28  O   UNL     1       2.188  -2.781   0.000  0.00  0.00    +0.000 OA
ENDBRANCH  26  27
ENDBRANCH   4  26
BRANCH  25  29
ATOM     29  O   UNL     1      -3.505   0.137   0.000  0.00  0.00    +0.000 OA
BRANCH  29  30
ATOM     30  C   UNL     1      -3.990   0.805   0.000  0.00  0.00    +0.000 C 
ATOM     31  C   UNL     1      -4.810   0.719   0.000  0.00  0.00    +0.000 C 
ATOM     32  C   UNL     1      -3.654   1.558   0.000  0.00  0.00    +0.000 C 
ENDBRANCH  29  30
ENDBRANCH  25  29
TORSDOF 4
