REMARK  Name = VX1
REMARK  2 active torsions:
REMARK  status: ('A' for Active; 'I' for Inactive)
REMARK    1  A    between atoms: C_6  and  C_8
REMARK    2  A    between atoms: C_14  and  C_15
REMARK                            x       y       z     vdW  Elec       q    Type
REMARK                         _______ _______ _______ _____ _____    ______ ____
ROOT
ATOM      1  C   UNL     1       1.075  -0.855   0.000  0.00  0.00    +0.000 A 
ATOM      2  C   UNL     1       1.075  -1.680   0.000  0.00  0.00    +0.000 A 
ATOM      3  C   UNL     1       0.360  -2.093   0.000  0.00  0.00    +0.000 A 
ATOM      4  C   UNL     1      -0.354  -1.680   0.000  0.00  0.00    +0.000 A 
ATOM      5  N   UNL     1      -1.139  -1.935   0.000  0.00  0.00    +0.000 NA
ATOM      6  O   UNL     1      -1.624  -1.268   0.000  0.00  0.00    +0.000 OA
ATOM      7  C   UNL     1      -1.139  -0.600   0.000  0.00  0.00    +0.000 A 
ATOM      8  C   UNL     1      -0.354  -0.855   0.000  0.00  0.00    +0.000 A 
ATOM      9  C   UNL     1       0.360  -0.443   0.000  0.00  0.00    +0.000 A 
ENDROOT
BRANCH   1  15
ATOM     10  N   UNL     1       2.503   1.620   0.000  0.00  0.00    +0.000 NA
ATOM     11  C   UNL     1       2.503   0.795   0.000  0.00  0.00    +0.000 A 
ATOM     12  N   UNL     1       3.218   0.382   0.000  0.00  0.00    +0.000 NA
ATOM     13  C   UNL     1       3.218  -0.443   0.000  0.00  0.00    +0.000 A 
ATOM     14  C   UNL     1       2.503  -0.855   0.000  0.00  0.00    +0.000 A 
ATOM     15  C   UNL     1       1.789  -0.443   0.000  0.00  0.00    +0.000 A 
ATOM     16  N   UNL     1       1.789   0.382   0.000  0.00  0.00    +0.000 NA
ENDBRANCH   1  15
BRANCH   7  17
ATOM     17  C   UNL     1      -1.394   0.184   0.000  0.00  0.00    +0.000 A 
ATOM     18  C   UNL     1      -2.201   0.356   0.000  0.00  0.00    +0.000 A 
ATOM     19  C   UNL     1      -2.456   1.140   0.000  0.00  0.00    +0.000 A 
ATOM     20  C   UNL     1      -1.904   1.754   0.000  0.00  0.00    +0.000 A 
ATOM     21 CL   UNL     1      -2.159   2.538   0.000  0.00  0.00    +0.000 Cl
ATOM     22  C   UNL     1      -1.097   1.582   0.000  0.00  0.00    +0.000 A 
ATOM     23  C   UNL     1      -0.842   0.797   0.000  0.00  0.00    +0.000 A 
ENDBRANCH   7  17
TORSDOF 2
