REMARK  Name = VX2
REMARK  3 active torsions:
REMARK  status: ('A' for Active; 'I' for Inactive)
REMARK    1  A    between atoms: C_1  and  C_10
REMARK    2  A    between atoms: C_9  and  N_20
REMARK    3  A    between atoms: C_18  and  C_19
REMARK                            x       y       z     vdW  Elec       q    Type
REMARK                         _______ _______ _______ _____ _____    ______ ____
ROOT
ATOM      1  N   UNL     1      -1.167  -1.685   0.000  0.00  0.00    +0.000 NA
ATOM      2  C   UNL     1      -0.382  -1.431   0.000  0.00  0.00    +0.000 A 
ATOM      3  C   UNL     1       0.333  -1.843   0.000  0.00  0.00    +0.000 A 
ATOM      4  C   UNL     1       1.047  -0.606   0.000  0.00  0.00    +0.000 A 
ATOM      5  C   UNL     1       1.047  -1.431   0.000  0.00  0.00    +0.000 A 
ATOM      6  N   UNL     1      -1.652  -1.018   0.000  0.00  0.00    +0.000 NA
ATOM      7  C   UNL     1      -1.167  -0.350   0.000  0.00  0.00    +0.000 A 
ATOM      8  N   UNL     1       1.761  -0.193   0.000  0.00  0.00    +0.000 NA
ATOM      9  N   UNL     1       0.333  -0.193   0.000  0.00  0.00    +0.000 NA
ATOM     10  N   UNL     1      -0.382  -0.606   0.000  0.00  0.00    +0.000 N 
ENDROOT
BRANCH   7  16
ATOM     11  C   UNL     1      -1.931   2.003   0.000  0.00  0.00    +0.000 A 
ATOM     12  C   UNL     1      -1.125   1.832   0.000  0.00  0.00    +0.000 A 
ATOM     13  C   UNL     1      -0.870   1.047   0.000  0.00  0.00    +0.000 A 
ATOM     14  C   UNL     1      -2.483   1.390   0.000  0.00  0.00    +0.000 A 
ATOM     15  C   UNL     1      -2.228   0.606   0.000  0.00  0.00    +0.000 A 
ATOM     16  C   UNL     1      -1.422   0.434   0.000  0.00  0.00    +0.000 A 
BRANCH  14  17
ATOM     17  C   UNL     1      -3.291   1.562   0.000  0.00  0.00    +0.000 C 
ATOM     18  F   UNL     1      -4.097   1.733   0.000  0.00  0.00    +0.000 F 
ATOM     19  F   UNL     1      -3.462   0.755   0.000  0.00  0.00    +0.000 F 
ATOM     20  F   UNL     1      -3.119   2.369   0.000  0.00  0.00    +0.000 F 
ENDBRANCH  14  17
ENDBRANCH   7  16
BRANCH   8  21
ATOM     21  C   UNL     1       2.476  -0.606   0.000  0.00  0.00    +0.000 C 
ATOM     22  C   UNL     1       3.905  -0.606   0.000  0.00  0.00    +0.000 C 
ATOM     23  C   UNL     1       3.190  -0.193   0.000  0.00  0.00    +0.000 C 
ATOM     24  C   UNL     1       3.905  -1.431   0.000  0.00  0.00    +0.000 C 
ATOM     25  C   UNL     1       3.190  -1.843   0.000  0.00  0.00    +0.000 C 
ATOM     26  C   UNL     1       2.476  -1.431   0.000  0.00  0.00    +0.000 C 
ENDBRANCH   8  21
TORSDOF 3
