REMARK  Name = VXX
REMARK  3 active torsions:
REMARK  status: ('A' for Active; 'I' for Inactive)
REMARK    1  A    between atoms: C_1  and  C_8
REMARK    2  A    between atoms: C_5  and  O_6
REMARK    3  A    between atoms: C_8  and  O_11
REMARK                            x       y       z     vdW  Elec       q    Type
REMARK                         _______ _______ _______ _____ _____    ______ ____
ROOT
ATOM      1  C   UNL     1       2.088  -0.507   0.000  0.00  0.00    +0.000 A 
ATOM      2  C   UNL     1       2.088  -1.332   0.000  0.00  0.00    +0.000 A 
ATOM      3  C   UNL     1       1.373  -0.094   0.000  0.00  0.00    +0.000 A 
ATOM      4  C   UNL     1       1.373  -1.744   0.000  0.00  0.00    +0.000 A 
ATOM      5  C   UNL     1       0.659  -0.507   0.000  0.00  0.00    +0.000 A 
ATOM      6  C   UNL     1       0.659  -1.332   0.000  0.00  0.00    +0.000 A 
ATOM      7  O   UNL     1      -0.056  -1.744   0.000  0.00  0.00    +0.000 OA
ENDROOT
BRANCH   5   8
ATOM      8  O   UNL     1      -0.056  -0.094   0.000  0.00  0.00    +0.000 OA
ATOM      9  C   UNL     1      -0.770  -0.507   0.000  0.00  0.00    +0.000 C 
ENDBRANCH   5   8
BRANCH   1  10
ATOM     10  C   UNL     1       2.802  -0.094   0.000  0.00  0.00    +0.000 C 
ATOM     11  O   UNL     1       2.802   0.731   0.000  0.00  0.00    +0.000 OA
BRANCH  10  12
ATOM     12  O   UNL     1       3.517  -0.507   0.000  0.00  0.00    +0.000 OA
ATOM     13  C   UNL     1       4.231  -0.094   0.000  0.00  0.00    +0.000 C 
ENDBRANCH  10  12
ENDBRANCH   1  10
TORSDOF 3
