REMARK  Name = W02
REMARK  6 active torsions:
REMARK  status: ('A' for Active; 'I' for Inactive)
REMARK    1  A    between atoms: C_6  and  C_7
REMARK    2  A    between atoms: C_7  and  C_8
REMARK    3  A    between atoms: C_8  and  C_9
REMARK    4  A    between atoms: C_9  and  O_10
REMARK    5  A    between atoms: O_10  and  C_11
REMARK    6  A    between atoms: C_15  and  N_19
REMARK                            x       y       z     vdW  Elec       q    Type
REMARK                         _______ _______ _______ _____ _____    ______ ____
ROOT
ATOM      1  C   UNL     1       0.679   0.199   0.000  0.00  0.00    +0.000 A 
ATOM      2  C   UNL     1       1.393   0.611   0.000  0.00  0.00    +0.000 A 
ATOM      3  C   UNL     1       1.393   1.436   0.000  0.00  0.00    +0.000 C 
ATOM      4  C   UNL     1       2.108   0.199   0.000  0.00  0.00    +0.000 A 
ATOM      5  C   UNL     1       2.108  -0.626   0.000  0.00  0.00    +0.000 A 
ATOM      6  C   UNL     1       1.393  -1.039   0.000  0.00  0.00    +0.000 A 
ATOM      7  C   UNL     1       0.679  -0.626   0.000  0.00  0.00    +0.000 A 
ATOM      8  C   UNL     1      -0.036  -1.039   0.000  0.00  0.00    +0.000 C 
ENDROOT
BRANCH   5   9
ATOM      9  N   UNL     1       2.822  -1.039   0.000  0.00  0.00    +0.000 N 
ATOM     10  N   UNL     1       3.576  -0.703   0.000  0.00  0.00    +0.000 NA
ATOM     11  N   UNL     1       2.909  -1.859   0.000  0.00  0.00    +0.000 NA
ATOM     12  C   UNL     1       3.716  -2.031   0.000  0.00  0.00    +0.000 A 
ATOM     13  C   UNL     1       4.051  -2.784   0.000  0.00  0.00    +0.000 C 
ATOM     14  N   UNL     1       4.128  -1.316   0.000  0.00  0.00    +0.000 NA
ENDBRANCH   5   9
BRANCH   1  15
ATOM     15  O   UNL     1      -0.036   0.611   0.000  0.00  0.00    +0.000 OA
BRANCH  15  16
ATOM     16  C   UNL     1      -0.750   0.199   0.000  0.00  0.00    +0.000 C 
BRANCH  16  17
ATOM     17  C   UNL     1      -1.464   0.611   0.000  0.00  0.00    +0.000 C 
BRANCH  17  18
ATOM     18  C   UNL     1      -2.179   0.199   0.000  0.00  0.00    +0.000 C 
BRANCH  18  24
ATOM     19  O   UNL     1      -3.647   0.276   0.000  0.00  0.00    +0.000 OA
ATOM     20  N   UNL     1      -4.199   0.889   0.000  0.00  0.00    +0.000 NA
ATOM     21  C   UNL     1      -3.787   1.603   0.000  0.00  0.00    +0.000 A 
ATOM     22  C   UNL     1      -4.122   2.357   0.000  0.00  0.00    +0.000 C 
ATOM     23  C   UNL     1      -2.980   1.432   0.000  0.00  0.00    +0.000 A 
ATOM     24  C   UNL     1      -2.893   0.611   0.000  0.00  0.00    +0.000 A 
ENDBRANCH  18  24
ENDBRANCH  17  18
ENDBRANCH  16  17
ENDBRANCH  15  16
ENDBRANCH   1  15
TORSDOF 6
