REMARK  Name = W03
REMARK  6 active torsions:
REMARK  status: ('A' for Active; 'I' for Inactive)
REMARK    1  A    between atoms: C_6  and  C_7
REMARK    2  A    between atoms: C_7  and  C_8
REMARK    3  A    between atoms: C_8  and  C_9
REMARK    4  A    between atoms: C_9  and  O_10
REMARK    5  A    between atoms: O_10  and  C_11
REMARK    6  A    between atoms: C_15  and  C_19
REMARK                            x       y       z     vdW  Elec       q    Type
REMARK                         _______ _______ _______ _____ _____    ______ ____
ROOT
ATOM      1  C   UNL     1       0.662   0.207   0.000  0.00  0.00    +0.000 A 
ATOM      2  C   UNL     1       1.377   0.619   0.000  0.00  0.00    +0.000 A 
ATOM      3  C   UNL     1       1.377   1.444   0.000  0.00  0.00    +0.000 C 
ATOM      4  C   UNL     1       2.091   0.207   0.000  0.00  0.00    +0.000 A 
ATOM      5  C   UNL     1       2.091  -0.618   0.000  0.00  0.00    +0.000 A 
ATOM      6  C   UNL     1       1.377  -1.031   0.000  0.00  0.00    +0.000 A 
ATOM      7  C   UNL     1       0.662  -0.618   0.000  0.00  0.00    +0.000 A 
ATOM      8  C   UNL     1      -0.052  -1.031   0.000  0.00  0.00    +0.000 C 
ENDROOT
BRANCH   5   9
ATOM      9  C   UNL     1       2.806  -1.031   0.000  0.00  0.00    +0.000 A 
ATOM     10  C   UNL     1       3.559  -0.695   0.000  0.00  0.00    +0.000 A 
ATOM     11  N   UNL     1       2.892  -1.851   0.000  0.00  0.00    +0.000 NA
ATOM     12  C   UNL     1       3.699  -2.023   0.000  0.00  0.00    +0.000 A 
ATOM     13  C   UNL     1       4.035  -2.776   0.000  0.00  0.00    +0.000 C 
ATOM     14  O   UNL     1       4.112  -1.308   0.000  0.00  0.00    +0.000 OA
ENDBRANCH   5   9
BRANCH   1  15
ATOM     15  O   UNL     1      -0.052   0.619   0.000  0.00  0.00    +0.000 OA
BRANCH  15  16
ATOM     16  C   UNL     1      -0.766   0.207   0.000  0.00  0.00    +0.000 C 
BRANCH  16  17
ATOM     17  C   UNL     1      -1.481   0.619   0.000  0.00  0.00    +0.000 C 
BRANCH  17  18
ATOM     18  C   UNL     1      -2.196   0.207   0.000  0.00  0.00    +0.000 C 
BRANCH  18  24
ATOM     19  O   UNL     1      -3.664   0.284   0.000  0.00  0.00    +0.000 OA
ATOM     20  N   UNL     1      -4.216   0.897   0.000  0.00  0.00    +0.000 NA
ATOM     21  C   UNL     1      -3.803   1.611   0.000  0.00  0.00    +0.000 A 
ATOM     22  C   UNL     1      -4.139   2.365   0.000  0.00  0.00    +0.000 C 
ATOM     23  C   UNL     1      -2.996   1.440   0.000  0.00  0.00    +0.000 A 
ATOM     24  C   UNL     1      -2.910   0.619   0.000  0.00  0.00    +0.000 A 
ENDBRANCH  18  24
ENDBRANCH  17  18
ENDBRANCH  16  17
ENDBRANCH  15  16
ENDBRANCH   1  15
TORSDOF 6
