REMARK  Name = W22
REMARK  2 active torsions:
REMARK  status: ('A' for Active; 'I' for Inactive)
REMARK    1  A    between atoms: C_3  and  C_4
REMARK    2  A    between atoms: C_4  and  C_5
REMARK                            x       y       z     vdW  Elec       q    Type
REMARK                         _______ _______ _______ _____ _____    ______ ____
ROOT
ATOM      1  O   UNL     1       1.532   0.180   0.000  0.00  0.00    +0.000 OA
ATOM      2  C   UNL     1       0.708   0.180   0.000  0.00  0.00    +0.000 C 
ATOM      3  C   UNL     1       0.349  -0.563   0.000  0.00  0.00    +0.000 C 
ATOM      4  N   UNL     1       0.349   0.924   0.000  0.00  0.00    +0.000 N 
ATOM      5  C   UNL     1       0.864   1.569   0.000  0.00  0.00    +0.000 C 
ATOM      6  C   UNL     1      -0.455   1.107   0.000  0.00  0.00    +0.000 C 
ATOM      7  C   UNL     1      -1.100   0.593   0.000  0.00  0.00    +0.000 A 
ATOM      8  C   UNL     1      -1.100  -0.232   0.000  0.00  0.00    +0.000 A 
ATOM      9  N   UNL     1      -0.455  -0.746   0.000  0.00  0.00    +0.000 NA
ATOM     10  C   UNL     1      -1.814   1.006   0.000  0.00  0.00    +0.000 A 
ATOM     11  C   UNL     1      -2.529   0.593   0.000  0.00  0.00    +0.000 A 
ATOM     12  C   UNL     1      -2.529  -0.232   0.000  0.00  0.00    +0.000 A 
ATOM     13  C   UNL     1      -1.814  -0.644   0.000  0.00  0.00    +0.000 A 
ENDROOT
BRANCH   3  14
ATOM     14  C   UNL     1       0.864  -1.208   0.000  0.00  0.00    +0.000 C 
BRANCH  14  15
ATOM     15  C   UNL     1       1.680  -1.085   0.000  0.00  0.00    +0.000 C 
ATOM     16  O   UNL     1       2.194  -1.730   0.000  0.00  0.00    +0.000 OA
ATOM     17  O   UNL     1       1.981  -0.317   0.000  0.00  0.00    +0.000 OA
ENDBRANCH  14  15
ENDBRANCH   3  14
TORSDOF 2
