REMARK  Name = W29
REMARK  2 active torsions:
REMARK  status: ('A' for Active; 'I' for Inactive)
REMARK    1  A    between atoms: C_8  and  C_9
REMARK    2  A    between atoms: C_13  and  C_14
REMARK                            x       y       z     vdW  Elec       q    Type
REMARK                         _______ _______ _______ _____ _____    ______ ____
ROOT
ATOM      1  O   UNL     1      -0.328   2.246   0.000  0.00  0.00    +0.000 OA
ATOM      2  C   UNL     1      -0.328   1.421   0.000  0.00  0.00    +0.000 A 
ATOM      3  C   UNL     1      -1.042   1.008   0.000  0.00  0.00    +0.000 A 
ATOM      4  O   UNL     1      -1.757   1.421   0.000  0.00  0.00    +0.000 OA
ATOM      5  C   UNL     1      -1.042   0.183   0.000  0.00  0.00    +0.000 A 
ATOM      6  C   UNL     1       0.387   1.008   0.000  0.00  0.00    +0.000 A 
ATOM      7  C   UNL     1       0.387   0.183   0.000  0.00  0.00    +0.000 A 
ATOM      8  C   UNL     1      -0.328  -0.229   0.000  0.00  0.00    +0.000 A 
ENDROOT
BRANCH   8   9
ATOM      9  C   UNL     1      -0.328  -1.054   0.000  0.00  0.00    +0.000 A 
ATOM     10  S   UNL     1      -0.995  -1.539   0.000  0.00  0.00    +0.000 S 
ATOM     11  C   UNL     1      -0.741  -2.324   0.000  0.00  0.00    +0.000 A 
ATOM     12  C   UNL     1       0.085  -2.324   0.000  0.00  0.00    +0.000 A 
ATOM     13  C   UNL     1       0.339  -1.539   0.000  0.00  0.00    +0.000 A 
BRANCH  13  14
ATOM     14  C   UNL     1       1.124  -1.284   0.000  0.00  0.00    +0.000 C 
ATOM     15  C   UNL     1       1.296  -0.477   0.000  0.00  0.00    +0.000 C 
ENDBRANCH  13  14
ENDBRANCH   8   9
TORSDOF 2
