REMARK  Name = W33
REMARK  8 active torsions:
REMARK  status: ('A' for Active; 'I' for Inactive)
REMARK    1  A    between atoms: C_6  and  C_7
REMARK    2  A    between atoms: C_7  and  C_8
REMARK    3  A    between atoms: C_8  and  C_9
REMARK    4  A    between atoms: C_9  and  C_10
REMARK    5  A    between atoms: C_10  and  C_11
REMARK    6  A    between atoms: C_11  and  O_12
REMARK    7  A    between atoms: O_12  and  C_13
REMARK    8  A    between atoms: C_16  and  C_20
REMARK                            x       y       z     vdW  Elec       q    Type
REMARK                         _______ _______ _______ _____ _____    ______ ____
ROOT
ATOM      1  O   UNL     1       0.972   0.428   0.000  0.00  0.00    +0.000 OA
ENDROOT
BRANCH   1   2
ATOM      2  C   UNL     1       1.687   0.016   0.000  0.00  0.00    +0.000 A 
ATOM      3  C   UNL     1       2.401   0.428   0.000  0.00  0.00    +0.000 A 
ATOM      4  C   UNL     1       3.116   0.016   0.000  0.00  0.00    +0.000 A 
ATOM      5  C   UNL     1       3.116  -0.809   0.000  0.00  0.00    +0.000 A 
ATOM      6  C   UNL     1       2.401  -1.222   0.000  0.00  0.00    +0.000 A 
ATOM      7  C   UNL     1       1.687  -0.809   0.000  0.00  0.00    +0.000 A 
ATOM      8 CL   UNL     1       0.972  -1.222   0.000  0.00  0.00    +0.000 Cl
BRANCH   5   9
ATOM      9  C   UNL     1       3.830  -1.222   0.000  0.00  0.00    +0.000 C 
ATOM     10  N   UNL     1       4.584  -0.886   0.000  0.00  0.00    +0.000 NA
ATOM     11  C   UNL     1       5.136  -1.499   0.000  0.00  0.00    +0.000 C 
ATOM     12  C   UNL     1       4.723  -2.214   0.000  0.00  0.00    +0.000 C 
ATOM     13  O   UNL     1       3.916  -2.042   0.000  0.00  0.00    +0.000 OA
ENDBRANCH   5   9
ENDBRANCH   1   2
BRANCH   1  14
ATOM     14  C   UNL     1       0.258   0.016   0.000  0.00  0.00    +0.000 C 
BRANCH  14  15
ATOM     15  C   UNL     1      -0.457   0.428   0.000  0.00  0.00    +0.000 C 
BRANCH  15  16
ATOM     16  C   UNL     1      -1.171   0.016   0.000  0.00  0.00    +0.000 C 
BRANCH  16  17
ATOM     17  C   UNL     1      -1.886   0.428   0.000  0.00  0.00    +0.000 C 
BRANCH  17  18
ATOM     18  C   UNL     1      -2.600   0.016   0.000  0.00  0.00    +0.000 C 
BRANCH  18  24
ATOM     19  O   UNL     1      -4.068   0.093   0.000  0.00  0.00    +0.000 OA
ATOM     20  N   UNL     1      -4.620   0.706   0.000  0.00  0.00    +0.000 NA
ATOM     21  C   UNL     1      -4.208   1.420   0.000  0.00  0.00    +0.000 A 
ATOM     22  C   UNL     1      -4.543   2.174   0.000  0.00  0.00    +0.000 C 
ATOM     23  C   UNL     1      -3.401   1.249   0.000  0.00  0.00    +0.000 A 
ATOM     24  C   UNL     1      -3.315   0.428   0.000  0.00  0.00    +0.000 A 
ENDBRANCH  18  24
ENDBRANCH  17  18
ENDBRANCH  16  17
ENDBRANCH  15  16
ENDBRANCH  14  15
ENDBRANCH   1  14
TORSDOF 8
