REMARK  Name = W35
REMARK  8 active torsions:
REMARK  status: ('A' for Active; 'I' for Inactive)
REMARK    1  A    between atoms: C_6  and  C_7
REMARK    2  A    between atoms: C_7  and  C_8
REMARK    3  A    between atoms: C_8  and  C_9
REMARK    4  A    between atoms: C_9  and  C_10
REMARK    5  A    between atoms: C_10  and  C_11
REMARK    6  A    between atoms: C_11  and  O_12
REMARK    7  A    between atoms: O_12  and  C_13
REMARK    8  A    between atoms: C_16  and  C_19
REMARK                            x       y       z     vdW  Elec       q    Type
REMARK                         _______ _______ _______ _____ _____    ______ ____
ROOT
ATOM      1  O   UNL     1       0.789   0.440   0.000  0.00  0.00    +0.000 OA
ENDROOT
BRANCH   1   2
ATOM      2  C   UNL     1       1.504   0.028   0.000  0.00  0.00    +0.000 A 
ATOM      3  C   UNL     1       2.218   0.440   0.000  0.00  0.00    +0.000 A 
ATOM      4  C   UNL     1       2.933   0.028   0.000  0.00  0.00    +0.000 A 
ATOM      5  C   UNL     1       2.933  -0.797   0.000  0.00  0.00    +0.000 A 
ATOM      6  C   UNL     1       2.218  -1.210   0.000  0.00  0.00    +0.000 A 
ATOM      7  C   UNL     1       1.504  -0.797   0.000  0.00  0.00    +0.000 A 
BRANCH   5   8
ATOM      8  C   UNL     1       3.647  -1.210   0.000  0.00  0.00    +0.000 C 
ATOM      9  N   UNL     1       4.401  -0.874   0.000  0.00  0.00    +0.000 NA
ATOM     10  C   UNL     1       4.953  -1.487   0.000  0.00  0.00    +0.000 C 
ATOM     11  C   UNL     1       4.540  -2.202   0.000  0.00  0.00    +0.000 C 
ATOM     12  O   UNL     1       3.733  -2.030   0.000  0.00  0.00    +0.000 OA
ENDBRANCH   5   8
ENDBRANCH   1   2
BRANCH   1  13
ATOM     13  C   UNL     1       0.075   0.028   0.000  0.00  0.00    +0.000 C 
BRANCH  13  14
ATOM     14  C   UNL     1      -0.640   0.440   0.000  0.00  0.00    +0.000 C 
BRANCH  14  15
ATOM     15  C   UNL     1      -1.354   0.028   0.000  0.00  0.00    +0.000 C 
BRANCH  15  16
ATOM     16  C   UNL     1      -2.069   0.440   0.000  0.00  0.00    +0.000 C 
BRANCH  16  17
ATOM     17  C   UNL     1      -2.783   0.028   0.000  0.00  0.00    +0.000 C 
BRANCH  17  23
ATOM     18  O   UNL     1      -4.251   0.105   0.000  0.00  0.00    +0.000 OA
ATOM     19  N   UNL     1      -4.803   0.718   0.000  0.00  0.00    +0.000 NA
ATOM     20  C   UNL     1      -4.391   1.432   0.000  0.00  0.00    +0.000 A 
ATOM     21  C   UNL     1      -4.726   2.186   0.000  0.00  0.00    +0.000 C 
ATOM     22  C   UNL     1      -3.584   1.261   0.000  0.00  0.00    +0.000 A 
ATOM     23  C   UNL     1      -3.498   0.440   0.000  0.00  0.00    +0.000 A 
ENDBRANCH  17  23
ENDBRANCH  16  17
ENDBRANCH  15  16
ENDBRANCH  14  15
ENDBRANCH  13  14
ENDBRANCH   1  13
TORSDOF 8
