REMARK  Name = W42
REMARK  14 active torsions:
REMARK  status: ('A' for Active; 'I' for Inactive)
REMARK    1  A    between atoms: C_2  and  C_3
REMARK    2  A    between atoms: C_3  and  O_4
REMARK    3  A    between atoms: O_4  and  C_5
REMARK    4  A    between atoms: C_5  and  O_6
REMARK    5  A    between atoms: O_6  and  C_10
REMARK    6  A    between atoms: C_9  and  C_10
REMARK    7  A    between atoms: C_12  and  C_13
REMARK    8  A    between atoms: C_13  and  C_14
REMARK    9  A    between atoms: C_14  and  C_15
REMARK   10  A    between atoms: C_15  and  C_16
REMARK   11  A    between atoms: C_16  and  C_17
REMARK   12  A    between atoms: C_17  and  O_18
REMARK   13  A    between atoms: O_18  and  C_19
REMARK   14  A    between atoms: C_22  and  C_27
REMARK                            x       y       z     vdW  Elec       q    Type
REMARK                         _______ _______ _______ _____ _____    ______ ____
ROOT
ATOM      1  C   UNL     1       0.867  -0.449   0.000  0.00  0.00    +0.000 C 
ENDROOT
BRANCH   1   2
ATOM      2  C   UNL     1       0.152  -0.862   0.000  0.00  0.00    +0.000 C 
BRANCH   2   3
ATOM      3  C   UNL     1      -0.562  -0.449   0.000  0.00  0.00    +0.000 C 
BRANCH   3   4
ATOM      4  C   UNL     1      -1.277  -0.862   0.000  0.00  0.00    +0.000 C 
BRANCH   4   9
ATOM      5  O   UNL     1      -2.745  -0.785   0.000  0.00  0.00    +0.000 OA
ATOM      6  N   UNL     1      -3.297  -0.172   0.000  0.00  0.00    +0.000 NA
ATOM      7  C   UNL     1      -2.884   0.543   0.000  0.00  0.00    +0.000 A 
ATOM      8  C   UNL     1      -2.077   0.371   0.000  0.00  0.00    +0.000 A 
ATOM      9  C   UNL     1      -1.991  -0.449   0.000  0.00  0.00    +0.000 A 
BRANCH   7  10
ATOM     10  C   UNL     1      -3.220   1.297   0.000  0.00  0.00    +0.000 C 
BRANCH  10  11
ATOM     11  O   UNL     1      -4.040   1.383   0.000  0.00  0.00    +0.000 OA
BRANCH  11  12
ATOM     12  C   UNL     1      -4.376   2.137   0.000  0.00  0.00    +0.000 C 
BRANCH  12  13
ATOM     13  O   UNL     1      -5.197   2.223   0.000  0.00  0.00    +0.000 OA
BRANCH  13  14
ATOM     14  C   UNL     1      -5.532   2.977   0.000  0.00  0.00    +0.000 C 
BRANCH  14  16
ATOM     15  O   UNL     1      -6.688   3.816   0.000  0.00  0.00    +0.000 OA
ATOM     16  C   UNL     1      -6.353   3.063   0.000  0.00  0.00    +0.000 C 
ENDBRANCH  14  16
ENDBRANCH  13  14
ENDBRANCH  12  13
ENDBRANCH  11  12
ENDBRANCH  10  11
ENDBRANCH   7  10
ENDBRANCH   4   9
ENDBRANCH   3   4
ENDBRANCH   2   3
ENDBRANCH   1   2
BRANCH   1  17
ATOM     17  C   UNL     1       1.581  -0.862   0.000  0.00  0.00    +0.000 C 
BRANCH  17  18
ATOM     18  O   UNL     1       2.296  -0.449   0.000  0.00  0.00    +0.000 OA
BRANCH  18  19
ATOM     19  C   UNL     1       3.010  -0.862   0.000  0.00  0.00    +0.000 A 
ATOM     20  C   UNL     1       3.725  -0.449   0.000  0.00  0.00    +0.000 A 
ATOM     21  C   UNL     1       4.439  -0.862   0.000  0.00  0.00    +0.000 A 
ATOM     22  C   UNL     1       4.439  -1.687   0.000  0.00  0.00    +0.000 A 
ATOM     23  C   UNL     1       3.725  -2.099   0.000  0.00  0.00    +0.000 A 
ATOM     24  C   UNL     1       3.010  -1.687   0.000  0.00  0.00    +0.000 A 
ATOM     25 CL   UNL     1       2.296  -2.099   0.000  0.00  0.00    +0.000 Cl
ATOM     26 CL   UNL     1       3.725   0.376   0.000  0.00  0.00    +0.000 Cl
BRANCH  22  27
ATOM     27  C   UNL     1       5.154  -2.099   0.000  0.00  0.00    +0.000 C 
ATOM     28  N   UNL     1       5.907  -1.763   0.000  0.00  0.00    +0.000 NA
ATOM     29  C   UNL     1       6.459  -2.377   0.000  0.00  0.00    +0.000 C 
ATOM     30  C   UNL     1       6.047  -3.091   0.000  0.00  0.00    +0.000 C 
ATOM     31  O   UNL     1       5.240  -2.920   0.000  0.00  0.00    +0.000 OA
ENDBRANCH  22  27
ENDBRANCH  18  19
ENDBRANCH  17  18
ENDBRANCH   1  17
TORSDOF 14
