REMARK  Name = W43
REMARK  10 active torsions:
REMARK  status: ('A' for Active; 'I' for Inactive)
REMARK    1  A    between atoms: C_6  and  C_7
REMARK    2  A    between atoms: C_7  and  C_8
REMARK    3  A    between atoms: C_8  and  C_9
REMARK    4  A    between atoms: C_9  and  C_10
REMARK    5  A    between atoms: C_10  and  C_11
REMARK    6  A    between atoms: C_11  and  C_12
REMARK    7  A    between atoms: C_12  and  C_13
REMARK    8  A    between atoms: C_13  and  O_14
REMARK    9  A    between atoms: O_14  and  C_15
REMARK   10  A    between atoms: C_18  and  C_22
REMARK                            x       y       z     vdW  Elec       q    Type
REMARK                         _______ _______ _______ _____ _____    ______ ____
ROOT
ATOM      1  O   UNL     1       0.930   0.495   0.000  0.00  0.00    +0.000 OA
ENDROOT
BRANCH   1   2
ATOM      2  C   UNL     1       1.644   0.082   0.000  0.00  0.00    +0.000 A 
ATOM      3  C   UNL     1       2.359   0.495   0.000  0.00  0.00    +0.000 A 
ATOM      4  C   UNL     1       3.073   0.082   0.000  0.00  0.00    +0.000 A 
ATOM      5  C   UNL     1       3.073  -0.743   0.000  0.00  0.00    +0.000 A 
ATOM      6  C   UNL     1       2.359  -1.155   0.000  0.00  0.00    +0.000 A 
ATOM      7  C   UNL     1       1.644  -0.743   0.000  0.00  0.00    +0.000 A 
ATOM      8 CL   UNL     1       0.930  -1.155   0.000  0.00  0.00    +0.000 Cl
BRANCH   5   9
ATOM      9  C   UNL     1       3.788  -1.155   0.000  0.00  0.00    +0.000 C 
ATOM     10  N   UNL     1       4.541  -0.820   0.000  0.00  0.00    +0.000 NA
ATOM     11  C   UNL     1       5.093  -1.433   0.000  0.00  0.00    +0.000 C 
ATOM     12  C   UNL     1       5.914  -1.346   0.000  0.00  0.00    +0.000 C 
ATOM     13  C   UNL     1       4.681  -2.147   0.000  0.00  0.00    +0.000 C 
ATOM     14  O   UNL     1       3.874  -1.976   0.000  0.00  0.00    +0.000 OA
ENDBRANCH   5   9
ENDBRANCH   1   2
BRANCH   1  15
ATOM     15  C   UNL     1       0.215   0.082   0.000  0.00  0.00    +0.000 C 
BRANCH  15  16
ATOM     16  C   UNL     1      -0.499   0.495   0.000  0.00  0.00    +0.000 C 
BRANCH  16  17
ATOM     17  C   UNL     1      -1.214   0.082   0.000  0.00  0.00    +0.000 C 
BRANCH  17  18
ATOM     18  C   UNL     1      -1.928   0.495   0.000  0.00  0.00    +0.000 C 
BRANCH  18  19
ATOM     19  C   UNL     1      -2.643   0.082   0.000  0.00  0.00    +0.000 C 
BRANCH  19  20
ATOM     20  C   UNL     1      -3.357   0.495   0.000  0.00  0.00    +0.000 C 
BRANCH  20  21
ATOM     21  C   UNL     1      -4.071   0.082   0.000  0.00  0.00    +0.000 C 
BRANCH  21  27
ATOM     22  O   UNL     1      -5.540   0.159   0.000  0.00  0.00    +0.000 OA
ATOM     23  N   UNL     1      -6.092   0.772   0.000  0.00  0.00    +0.000 NA
ATOM     24  C   UNL     1      -5.679   1.487   0.000  0.00  0.00    +0.000 A 
ATOM     25  C   UNL     1      -6.015   2.241   0.000  0.00  0.00    +0.000 C 
ATOM     26  C   UNL     1      -4.872   1.315   0.000  0.00  0.00    +0.000 A 
ATOM     27  C   UNL     1      -4.786   0.495   0.000  0.00  0.00    +0.000 A 
ENDBRANCH  21  27
ENDBRANCH  20  21
ENDBRANCH  19  20
ENDBRANCH  18  19
ENDBRANCH  17  18
ENDBRANCH  16  17
ENDBRANCH  15  16
ENDBRANCH   1  15
TORSDOF 10
