REMARK  Name = W56
REMARK  8 active torsions:
REMARK  status: ('A' for Active; 'I' for Inactive)
REMARK    1  A    between atoms: C_6  and  C_7
REMARK    2  A    between atoms: C_7  and  C_8
REMARK    3  A    between atoms: C_8  and  C_9
REMARK    4  A    between atoms: C_9  and  C_10
REMARK    5  A    between atoms: C_10  and  C_11
REMARK    6  A    between atoms: C_11  and  O_12
REMARK    7  A    between atoms: O_12  and  C_13
REMARK    8  A    between atoms: C_16  and  C_19
REMARK                            x       y       z     vdW  Elec       q    Type
REMARK                         _______ _______ _______ _____ _____    ______ ____
ROOT
ATOM      1  O   UNL     1       0.455   0.646   0.000  0.00  0.00    +0.000 OA
ENDROOT
BRANCH   1   2
ATOM      2  C   UNL     1       1.170   0.234   0.000  0.00  0.00    +0.000 A 
ATOM      3  C   UNL     1       1.884   0.646   0.000  0.00  0.00    +0.000 A 
ATOM      4  C   UNL     1       2.599   0.234   0.000  0.00  0.00    +0.000 A 
ATOM      5  C   UNL     1       2.599  -0.591   0.000  0.00  0.00    +0.000 A 
ATOM      6  C   UNL     1       1.884  -1.004   0.000  0.00  0.00    +0.000 A 
ATOM      7  C   UNL     1       1.170  -0.591   0.000  0.00  0.00    +0.000 A 
BRANCH   5   8
ATOM      8  C   UNL     1       3.313  -1.004   0.000  0.00  0.00    +0.000 C 
ATOM      9  N   UNL     1       4.067  -0.668   0.000  0.00  0.00    +0.000 NA
ATOM     10  C   UNL     1       4.619  -1.281   0.000  0.00  0.00    +0.000 C 
ATOM     11  C   UNL     1       5.439  -1.195   0.000  0.00  0.00    +0.000 C 
ATOM     12  C   UNL     1       4.207  -1.996   0.000  0.00  0.00    +0.000 C 
ATOM     13  O   UNL     1       3.400  -1.824   0.000  0.00  0.00    +0.000 OA
ENDBRANCH   5   8
ENDBRANCH   1   2
BRANCH   1  14
ATOM     14  C   UNL     1      -0.259   0.234   0.000  0.00  0.00    +0.000 C 
BRANCH  14  15
ATOM     15  C   UNL     1      -0.974   0.646   0.000  0.00  0.00    +0.000 C 
BRANCH  15  16
ATOM     16  C   UNL     1      -1.688   0.234   0.000  0.00  0.00    +0.000 C 
BRANCH  16  17
ATOM     17  C   UNL     1      -2.402   0.646   0.000  0.00  0.00    +0.000 C 
BRANCH  17  18
ATOM     18  C   UNL     1      -3.117   0.234   0.000  0.00  0.00    +0.000 C 
BRANCH  18  24
ATOM     19  O   UNL     1      -4.585   0.311   0.000  0.00  0.00    +0.000 OA
ATOM     20  N   UNL     1      -5.137   0.924   0.000  0.00  0.00    +0.000 NA
ATOM     21  C   UNL     1      -4.725   1.638   0.000  0.00  0.00    +0.000 A 
ATOM     22  C   UNL     1      -5.060   2.392   0.000  0.00  0.00    +0.000 C 
ATOM     23  C   UNL     1      -3.918   1.467   0.000  0.00  0.00    +0.000 A 
ATOM     24  C   UNL     1      -3.831   0.646   0.000  0.00  0.00    +0.000 A 
ENDBRANCH  18  24
ENDBRANCH  17  18
ENDBRANCH  16  17
ENDBRANCH  15  16
ENDBRANCH  14  15
ENDBRANCH   1  14
TORSDOF 8
