REMARK  Name = W91
REMARK  6 active torsions:
REMARK  status: ('A' for Active; 'I' for Inactive)
REMARK    1  A    between atoms: C_4  and  C_7
REMARK    2  A    between atoms: C_7  and  C_8
REMARK    3  A    between atoms: C_8  and  C_9
REMARK    4  A    between atoms: C_9  and  O_10
REMARK    5  A    between atoms: O_10  and  C_11
REMARK    6  A    between atoms: C_15  and  C_19
REMARK                            x       y       z     vdW  Elec       q    Type
REMARK                         _______ _______ _______ _____ _____    ______ ____
ROOT
ATOM      1  C   UNL     1       0.809   0.255   0.000  0.00  0.00    +0.000 A 
ATOM      2  C   UNL     1       1.524   0.668   0.000  0.00  0.00    +0.000 A 
ATOM      3 CL   UNL     1       1.524   1.493   0.000  0.00  0.00    +0.000 Cl
ATOM      4  C   UNL     1       2.238   0.255   0.000  0.00  0.00    +0.000 A 
ATOM      5  C   UNL     1       2.238  -0.570   0.000  0.00  0.00    +0.000 A 
ATOM      6  C   UNL     1       1.524  -0.982   0.000  0.00  0.00    +0.000 A 
ATOM      7  C   UNL     1       0.809  -0.570   0.000  0.00  0.00    +0.000 A 
ATOM      8 CL   UNL     1       0.095  -0.982   0.000  0.00  0.00    +0.000 Cl
ENDROOT
BRANCH   5   9
ATOM      9  C   UNL     1       2.953  -0.982   0.000  0.00  0.00    +0.000 C 
ATOM     10  N   UNL     1       3.706  -0.647   0.000  0.00  0.00    +0.000 NA
ATOM     11  C   UNL     1       4.258  -1.260   0.000  0.00  0.00    +0.000 C 
ATOM     12  C   UNL     1       3.846  -1.974   0.000  0.00  0.00    +0.000 C 
ATOM     13  O   UNL     1       3.039  -1.803   0.000  0.00  0.00    +0.000 OA
ENDBRANCH   5   9
BRANCH   1  14
ATOM     14  O   UNL     1       0.095   0.668   0.000  0.00  0.00    +0.000 OA
BRANCH  14  15
ATOM     15  C   UNL     1      -0.620   0.255   0.000  0.00  0.00    +0.000 C 
BRANCH  15  16
ATOM     16  C   UNL     1      -1.334   0.668   0.000  0.00  0.00    +0.000 C 
BRANCH  16  17
ATOM     17  C   UNL     1      -2.049   0.255   0.000  0.00  0.00    +0.000 C 
BRANCH  17  21
ATOM     18  C   UNL     1      -3.656   1.660   0.000  0.00  0.00    +0.000 A 
ATOM     19  C   UNL     1      -3.992   2.413   0.000  0.00  0.00    +0.000 C 
ATOM     20  C   UNL     1      -2.849   1.488   0.000  0.00  0.00    +0.000 A 
ATOM     21  C   UNL     1      -2.763   0.668   0.000  0.00  0.00    +0.000 A 
ATOM     22  O   UNL     1      -3.517   0.332   0.000  0.00  0.00    +0.000 OA
ATOM     23  N   UNL     1      -4.069   0.945   0.000  0.00  0.00    +0.000 NA
ENDBRANCH  17  21
ENDBRANCH  16  17
ENDBRANCH  15  16
ENDBRANCH  14  15
ENDBRANCH   1  14
TORSDOF 6
