REMARK  Name = WAC
REMARK  6 active torsions:
REMARK  status: ('A' for Active; 'I' for Inactive)
REMARK    1  A    between atoms: N_7  and  C_18
REMARK    2  A    between atoms: C_18  and  C_19
REMARK    3  A    between atoms: C_19  and  C_20
REMARK    4  A    between atoms: C_20  and  N_21
REMARK    5  A    between atoms: N_21  and  S_22
REMARK    6  A    between atoms: S_22  and  C_23
REMARK                            x       y       z     vdW  Elec       q    Type
REMARK                         _______ _______ _______ _____ _____    ______ ____
ROOT
ATOM      1  C   UNL     1      -2.540  -2.272   0.000  0.00  0.00    +0.000 A 
ATOM      2  C   UNL     1      -1.812  -1.883   0.000  0.00  0.00    +0.000 A 
ATOM      3  C   UNL     1      -1.784  -1.059   0.000  0.00  0.00    +0.000 A 
ATOM      4  C   UNL     1      -2.485  -0.623   0.000  0.00  0.00    +0.000 A 
ATOM      5  C   UNL     1      -3.213  -1.012   0.000  0.00  0.00    +0.000 A 
ATOM      6  C   UNL     1      -3.240  -1.836   0.000  0.00  0.00    +0.000 A 
ATOM      7  N   UNL     1      -1.153  -0.527   0.000  0.00  0.00    +0.000 N 
ATOM      8  C   UNL     1      -1.464   0.237   0.000  0.00  0.00    +0.000 A 
ATOM      9  C   UNL     1      -2.287   0.178   0.000  0.00  0.00    +0.000 A 
ATOM     10  C   UNL     1      -1.104   0.979   0.000  0.00  0.00    +0.000 C 
ATOM     11  N   UNL     1      -1.566   1.662   0.000  0.00  0.00    +0.000 NA
ATOM     12  C   UNL     1      -2.389   1.603   0.000  0.00  0.00    +0.000 C 
ATOM     13  C   UNL     1      -2.749   0.861   0.000  0.00  0.00    +0.000 C 
ATOM     14  C   UNL     1      -0.281   1.038   0.000  0.00  0.00    +0.000 C 
ATOM     15  C   UNL     1       0.080   1.780   0.000  0.00  0.00    +0.000 C 
ATOM     16  C   UNL     1      -0.383   2.463   0.000  0.00  0.00    +0.000 C 
ATOM     17  C   UNL     1      -1.206   2.404   0.000  0.00  0.00    +0.000 C 
ATOM     18  O   UNL     1      -3.572   0.802   0.000  0.00  0.00    +0.000 OA
ENDROOT
BRANCH   7  19
ATOM     19  C   UNL     1      -0.353  -0.726   0.000  0.00  0.00    +0.000 C 
BRANCH  19  20
ATOM     20  C   UNL     1       0.219  -0.131   0.000  0.00  0.00    +0.000 C 
BRANCH  20  21
ATOM     21  C   UNL     1       1.020  -0.329   0.000  0.00  0.00    +0.000 C 
BRANCH  21  22
ATOM     22  N   UNL     1       1.592   0.265   0.000  0.00  0.00    +0.000 NA
BRANCH  22  23
ATOM     23  S   UNL     1       2.393   0.067   0.000  0.00  0.00    +0.000 S 
ATOM     24  O   UNL     1       2.195  -0.734   0.000  0.00  0.00    +0.000 OA
ATOM     25  O   UNL     1       2.591   0.868   0.000  0.00  0.00    +0.000 OA
BRANCH  23  26
ATOM     26  C   UNL     1       3.194  -0.131   0.000  0.00  0.00    +0.000 C 
ATOM     27  C   UNL     1       3.766   0.463   0.000  0.00  0.00    +0.000 C 
ATOM     28  C   UNL     1       3.423  -0.924   0.000  0.00  0.00    +0.000 C 
ENDBRANCH  23  26
ENDBRANCH  22  23
ENDBRANCH  21  22
ENDBRANCH  20  21
ENDBRANCH  19  20
ENDBRANCH   7  19
TORSDOF 6
