REMARK  Name = WAN
REMARK  6 active torsions:
REMARK  status: ('A' for Active; 'I' for Inactive)
REMARK    1  A    between atoms: C_2  and  C_3
REMARK    2  A    between atoms: C_3  and  C_4
REMARK    3  A    between atoms: C_14  and  C_15
REMARK    4  A    between atoms: C_17  and  S_18
REMARK    5  A    between atoms: C_23  and  O_24
REMARK    6  A    between atoms: O_24  and  C_25
REMARK                            x       y       z     vdW  Elec       q    Type
REMARK                         _______ _______ _______ _____ _____    ______ ____
ROOT
ATOM      1  C   UNL     1      -2.407   0.308   0.000  0.00  0.00    +0.000 A 
ATOM      2  C   UNL     1      -1.622   0.053   0.000  0.00  0.00    +0.000 A 
ATOM      3  N   UNL     1      -0.908   0.466   0.000  0.00  0.00    +0.000 NA
ATOM      4  N   UNL     1      -2.892  -0.359   0.000  0.00  0.00    +0.000 NA
ATOM      5  N   UNL     1      -2.407  -1.027   0.000  0.00  0.00    +0.000 N 
ATOM      6  C   UNL     1      -2.662  -1.812   0.000  0.00  0.00    +0.000 C 
ATOM      7  C   UNL     1      -1.622  -0.772   0.000  0.00  0.00    +0.000 A 
ATOM      8  C   UNL     1      -0.908  -1.185   0.000  0.00  0.00    +0.000 A 
ATOM      9  O   UNL     1      -0.908  -2.010   0.000  0.00  0.00    +0.000 OA
ATOM     10  N   UNL     1      -0.193  -0.772   0.000  0.00  0.00    +0.000 NA
ATOM     11  C   UNL     1      -0.193   0.053   0.000  0.00  0.00    +0.000 A 
ENDROOT
BRANCH  11  12
ATOM     12  C   UNL     1       0.521   0.466   0.000  0.00  0.00    +0.000 A 
ATOM     13  C   UNL     1       0.607   1.286   0.000  0.00  0.00    +0.000 A 
ATOM     14  C   UNL     1       1.414   1.458   0.000  0.00  0.00    +0.000 A 
ATOM     15  S   UNL     1       1.827   0.743   0.000  0.00  0.00    +0.000 S 
ATOM     16  C   UNL     1       1.275   0.130   0.000  0.00  0.00    +0.000 A 
BRANCH  14  17
ATOM     17  S   UNL     1       1.750   2.211   0.000  0.00  0.00    +0.000 S 
ATOM     18  O   UNL     1       2.085   2.965   0.000  0.00  0.00    +0.000 OA
ATOM     19  O   UNL     1       2.504   1.876   0.000  0.00  0.00    +0.000 OA
ATOM     20  N   UNL     1       0.996   2.547   0.000  0.00  0.00    +0.000 NA
ENDBRANCH  14  17
BRANCH  16  21
ATOM     21  O   UNL     1       1.446  -0.677   0.000  0.00  0.00    +0.000 OA
BRANCH  21  22
ATOM     22  C   UNL     1       2.231  -0.932   0.000  0.00  0.00    +0.000 C 
ATOM     23  C   UNL     1       2.402  -1.739   0.000  0.00  0.00    +0.000 C 
ENDBRANCH  21  22
ENDBRANCH  16  21
ENDBRANCH  11  12
BRANCH   1  24
ATOM     24  C   UNL     1      -2.662   1.093   0.000  0.00  0.00    +0.000 C 
BRANCH  24  26
ATOM     25  C   UNL     1      -3.724   2.049   0.000  0.00  0.00    +0.000 C 
ATOM     26  C   UNL     1      -3.469   1.264   0.000  0.00  0.00    +0.000 C 
ENDBRANCH  24  26
ENDBRANCH   1  24
TORSDOF 6
