REMARK  Name = WBT
REMARK  6 active torsions:
REMARK  status: ('A' for Active; 'I' for Inactive)
REMARK    1  A    between atoms: C_4  and  N_28
REMARK    2  A    between atoms: C_6  and  C_8
REMARK    3  A    between atoms: N_10  and  C_11
REMARK    4  A    between atoms: N_17  and  C_18
REMARK    5  A    between atoms: C_18  and  C_19
REMARK    6  A    between atoms: C_19  and  C_20
REMARK                            x       y       z     vdW  Elec       q    Type
REMARK                         _______ _______ _______ _____ _____    ______ ____
ROOT
ATOM      1  C   UNL     1      -0.630  -0.514   0.000  0.00  0.00    +0.000 A 
ATOM      2  C   UNL     1      -0.630  -1.339   0.000  0.00  0.00    +0.000 A 
ATOM      3  C   UNL     1      -1.344  -1.752   0.000  0.00  0.00    +0.000 A 
ATOM      4  C   UNL     1      -2.059  -1.339   0.000  0.00  0.00    +0.000 A 
ATOM      5  C   UNL     1      -2.843  -1.594   0.000  0.00  0.00    +0.000 A 
ATOM      6  C   UNL     1      -3.328  -0.927   0.000  0.00  0.00    +0.000 A 
ATOM      7  N   UNL     1      -2.843  -0.260   0.000  0.00  0.00    +0.000 N 
ATOM      8  C   UNL     1      -2.059  -0.514   0.000  0.00  0.00    +0.000 A 
ATOM      9  C   UNL     1      -1.344  -0.102   0.000  0.00  0.00    +0.000 A 
ENDROOT
BRANCH   1  12
ATOM     10  C   UNL     1       0.799  -0.514   0.000  0.00  0.00    +0.000 C 
ATOM     11  O   UNL     1       0.799  -1.339   0.000  0.00  0.00    +0.000 OA
ATOM     12  N   UNL     1       0.085  -0.102   0.000  0.00  0.00    +0.000 NA
BRANCH  10  18
ATOM     13  F   UNL     1       2.228   1.960   0.000  0.00  0.00    +0.000 F 
ATOM     14  C   UNL     1       2.228   1.135   0.000  0.00  0.00    +0.000 A 
ATOM     15  C   UNL     1       2.942   0.723   0.000  0.00  0.00    +0.000 A 
ATOM     16  C   UNL     1       2.942  -0.102   0.000  0.00  0.00    +0.000 A 
ATOM     17  C   UNL     1       2.228  -0.514   0.000  0.00  0.00    +0.000 A 
ATOM     18  C   UNL     1       1.514  -0.102   0.000  0.00  0.00    +0.000 A 
ATOM     19  C   UNL     1       1.514   0.723   0.000  0.00  0.00    +0.000 A 
BRANCH  16  20
ATOM     20  N   UNL     1       3.657  -0.514   0.000  0.00  0.00    +0.000 N 
ATOM     21  C   UNL     1       4.372  -0.102   0.000  0.00  0.00    +0.000 C 
ATOM     22  C   UNL     1       5.086  -0.514   0.000  0.00  0.00    +0.000 C 
ATOM     23  O   UNL     1       5.086  -1.339   0.000  0.00  0.00    +0.000 OA
ATOM     24  C   UNL     1       4.372  -1.752   0.000  0.00  0.00    +0.000 C 
ATOM     25  C   UNL     1       3.657  -1.339   0.000  0.00  0.00    +0.000 C 
ENDBRANCH  16  20
ENDBRANCH  10  18
ENDBRANCH   1  12
BRANCH   7  26
ATOM     26  C   UNL     1      -3.098   0.525   0.000  0.00  0.00    +0.000 C 
BRANCH  26  27
ATOM     27  C   UNL     1      -3.905   0.697   0.000  0.00  0.00    +0.000 C 
BRANCH  27  28
ATOM     28  C   UNL     1      -4.160   1.481   0.000  0.00  0.00    +0.000 A 
ATOM     29  C   UNL     1      -4.967   1.653   0.000  0.00  0.00    +0.000 A 
ATOM     30  C   UNL     1      -5.222   2.437   0.000  0.00  0.00    +0.000 A 
ATOM     31  N   UNL     1      -4.670   3.050   0.000  0.00  0.00    +0.000 NA
ATOM     32  C   UNL     1      -3.863   2.879   0.000  0.00  0.00    +0.000 A 
ATOM     33  C   UNL     1      -3.608   2.094   0.000  0.00  0.00    +0.000 A 
ENDBRANCH  27  28
ENDBRANCH  26  27
ENDBRANCH   7  26
TORSDOF 6
