REMARK  Name = WH6
REMARK  6 active torsions:
REMARK  status: ('A' for Active; 'I' for Inactive)
REMARK    1  A    between atoms: C_10  and  C_11
REMARK    2  A    between atoms: C_11  and  C_12
REMARK    3  A    between atoms: C_12  and  C_13
REMARK    4  A    between atoms: C_12  and  N_17
REMARK    5  A    between atoms: C_13  and  C_14
REMARK    6  A    between atoms: C_22  and  C_23
REMARK                            x       y       z     vdW  Elec       q    Type
REMARK                         _______ _______ _______ _____ _____    ______ ____
ROOT
ATOM      1  C   UNL     1      -0.909   0.712   0.000  0.00  0.00    +0.000 C 
ENDROOT
BRANCH   1   2
ATOM      2  N   UNL     1      -0.055   0.688   0.000  0.00  0.00    +0.000 N 
ATOM      3  C   UNL     1       0.430   1.355   0.000  0.00  0.00    +0.000 C 
ATOM      4  O   UNL     1       0.191   2.176   0.000  0.00  0.00    +0.000 OA
ATOM      5  C   UNL     1       1.214   1.100   0.000  0.00  0.00    +0.000 A 
ATOM      6  C   UNL     1       1.929   1.513   0.000  0.00  0.00    +0.000 A 
ATOM      7  C   UNL     1       2.643   1.100   0.000  0.00  0.00    +0.000 A 
ATOM      8  C   UNL     1       2.643   0.275   0.000  0.00  0.00    +0.000 A 
ATOM      9  C   UNL     1       1.929  -0.137   0.000  0.00  0.00    +0.000 A 
ATOM     10  C   UNL     1       1.214   0.275   0.000  0.00  0.00    +0.000 A 
ATOM     11  C   UNL     1       0.430   0.021   0.000  0.00  0.00    +0.000 C 
ATOM     12  O   UNL     1       0.479  -0.922   0.000  0.00  0.00    +0.000 OA
BRANCH   7  13
ATOM     13  C   UNL     1       3.395   1.535   0.000  0.00  0.00    +0.000 C 
ATOM     14  O   UNL     1       3.378   2.381   0.000  0.00  0.00    +0.000 OA
ATOM     15  O   UNL     1       4.120   1.097   0.000  0.00  0.00    +0.000 OA
ENDBRANCH   7  13
ENDBRANCH   1   2
BRANCH   1  16
ATOM     16  C   UNL     1      -1.339  -0.019   0.000  0.00  0.00    +0.000 C 
BRANCH  16  26
ATOM     17  C   UNL     1      -0.337  -1.089   0.000  0.00  0.00    +0.000 A 
ATOM     18  C   UNL     1       0.246  -0.424   0.000  0.00  0.00    +0.000 A 
ATOM     19  C   UNL     1       1.061  -0.791   0.000  0.00  0.00    +0.000 A 
ATOM     20  C   UNL     1       1.233  -1.598   0.000  0.00  0.00    +0.000 A 
ATOM     21  C   UNL     1       0.620  -2.150   0.000  0.00  0.00    +0.000 A 
ATOM     22  C   UNL     1      -0.165  -1.895   0.000  0.00  0.00    +0.000 A 
ATOM     23  C   UNL     1      -0.778  -2.447   0.000  0.00  0.00    +0.000 A 
ATOM     24  C   UNL     1      -1.563  -2.192   0.000  0.00  0.00    +0.000 A 
ATOM     25  C   UNL     1      -1.734  -1.386   0.000  0.00  0.00    +0.000 A 
ATOM     26  C   UNL     1      -1.121  -0.834   0.000  0.00  0.00    +0.000 A 
ENDBRANCH  16  26
ENDBRANCH   1  16
BRANCH   1  27
ATOM     27  C   UNL     1      -1.330   1.449   0.000  0.00  0.00    +0.000 C 
BRANCH  27  28
ATOM     28  C   UNL     1      -2.169   1.418   0.000  0.00  0.00    +0.000 C 
ATOM     29  O   UNL     1      -2.559   2.161   0.000  0.00  0.00    +0.000 OA
ATOM     30  O   UNL     1      -2.595   0.702   0.000  0.00  0.00    +0.000 OA
ENDBRANCH  27  28
ENDBRANCH   1  27
TORSDOF 6
