REMARK  Name = WR1
REMARK  11 active torsions:
REMARK  status: ('A' for Active; 'I' for Inactive)
REMARK    1  A    between atoms: C_2  and  O_3
REMARK    2  A    between atoms: O_3  and  C_4
REMARK    3  A    between atoms: C_4  and  C_5
REMARK    4  A    between atoms: N_11  and  C_12
REMARK    5  A    between atoms: C_12  and  C_13
REMARK    6  A    between atoms: C_12  and  C_20
REMARK    7  A    between atoms: C_13  and  C_14
REMARK    8  A    between atoms: N_22  and  C_23
REMARK    9  A    between atoms: C_23  and  C_25
REMARK   10  A    between atoms: C_25  and  C_27
REMARK   11  A    between atoms: C_27  and  C_28
REMARK                            x       y       z     vdW  Elec       q    Type
REMARK                         _______ _______ _______ _____ _____    ______ ____
ROOT
ATOM      1  C   UNL     1      -1.335   0.454   0.000  0.00  0.00    +0.000 C 
ENDROOT
BRANCH   1   4
ATOM      2  O   UNL     1      -2.764  -0.371   0.000  0.00  0.00    +0.000 OA
ATOM      3  C   UNL     1      -2.764   0.454   0.000  0.00  0.00    +0.000 C 
ATOM      4  N   UNL     1      -2.049   0.867   0.000  0.00  0.00    +0.000 NA
BRANCH   3   5
ATOM      5  O   UNL     1      -3.478   0.867   0.000  0.00  0.00    +0.000 OA
BRANCH   5   6
ATOM      6  C   UNL     1      -4.193   0.454   0.000  0.00  0.00    +0.000 C 
BRANCH   6   7
ATOM      7  C   UNL     1      -4.907   0.867   0.000  0.00  0.00    +0.000 A 
ATOM      8  C   UNL     1      -5.622   0.454   0.000  0.00  0.00    +0.000 A 
ATOM      9  C   UNL     1      -6.336   0.867   0.000  0.00  0.00    +0.000 A 
ATOM     10  C   UNL     1      -6.336   1.692   0.000  0.00  0.00    +0.000 A 
ATOM     11  C   UNL     1      -5.622   2.104   0.000  0.00  0.00    +0.000 A 
ATOM     12  C   UNL     1      -4.907   1.692   0.000  0.00  0.00    +0.000 A 
ENDBRANCH   6   7
ENDBRANCH   5   6
ENDBRANCH   3   5
ENDBRANCH   1   4
BRANCH   1  13
ATOM     13  C   UNL     1      -0.620   0.867   0.000  0.00  0.00    +0.000 C 
ATOM     14  O   UNL     1      -0.620   1.692   0.000  0.00  0.00    +0.000 OA
ATOM     15  N   UNL     1       0.094   0.454   0.000  0.00  0.00    +0.000 NA
BRANCH  15  16
ATOM     16  C   UNL     1       0.808   0.867   0.000  0.00  0.00    +0.000 C 
ATOM     17  C   UNL     1       0.808   1.692   0.000  0.00  0.00    +0.000 C 
BRANCH  16  18
ATOM     18  C   UNL     1       1.523   0.454   0.000  0.00  0.00    +0.000 C 
ATOM     19  O   UNL     1       1.523  -0.371   0.000  0.00  0.00    +0.000 OA
BRANCH  18  20
ATOM     20  C   UNL     1       2.237   0.867   0.000  0.00  0.00    +0.000 C 
BRANCH  20  21
ATOM     21  C   UNL     1       2.952   0.454   0.000  0.00  0.00    +0.000 C 
ATOM     22  O   UNL     1       3.666   0.867   0.000  0.00  0.00    +0.000 OA
ENDBRANCH  20  21
ENDBRANCH  18  20
ENDBRANCH  16  18
ENDBRANCH  15  16
ENDBRANCH   1  13
BRANCH   1  23
ATOM     23  C   UNL     1      -1.335  -0.371   0.000  0.00  0.00    +0.000 C 
BRANCH  23  24
ATOM     24  C   UNL     1      -0.620  -0.783   0.000  0.00  0.00    +0.000 A 
ATOM     25  C   UNL     1      -0.620  -1.608   0.000  0.00  0.00    +0.000 A 
ATOM     26  C   UNL     1       0.094  -2.021   0.000  0.00  0.00    +0.000 A 
ATOM     27  C   UNL     1       0.808  -1.608   0.000  0.00  0.00    +0.000 A 
ATOM     28  C   UNL     1       0.808  -0.783   0.000  0.00  0.00    +0.000 A 
ATOM     29  C   UNL     1       0.094  -0.371   0.000  0.00  0.00    +0.000 A 
ENDBRANCH  23  24
ENDBRANCH   1  23
TORSDOF 11
