REMARK  Name = WR2
REMARK  11 active torsions:
REMARK  status: ('A' for Active; 'I' for Inactive)
REMARK    1  A    between atoms: C_2  and  C_5
REMARK    2  A    between atoms: C_5  and  C_6
REMARK    3  A    between atoms: C_5  and  N_10
REMARK    4  A    between atoms: C_11  and  C_13
REMARK    5  A    between atoms: C_13  and  C_14
REMARK    6  A    between atoms: C_13  and  C_18
REMARK    7  A    between atoms: C_14  and  C_15
REMARK    8  A    between atoms: C_18  and  C_19
REMARK    9  A    between atoms: C_18  and  C_23
REMARK   10  A    between atoms: C_23  and  N_24
REMARK   11  A    between atoms: C_25  and  C_27
REMARK                            x       y       z     vdW  Elec       q    Type
REMARK                         _______ _______ _______ _____ _____    ______ ____
ROOT
ATOM      1  C   UNL     1       5.902   6.802   0.000  0.00  0.00    +0.000 C 
ENDROOT
BRANCH   1   3
ATOM      2  N   UNL     1       4.473   6.802   0.000  0.00  0.00    +0.000 NA
ATOM      3  C   UNL     1       5.187   6.390   0.000  0.00  0.00    +0.000 C 
ATOM      4  O   UNL     1       5.187   5.565   0.000  0.00  0.00    +0.000 OA
BRANCH   2   5
ATOM      5  C   UNL     1       3.758   6.390   0.000  0.00  0.00    +0.000 C 
BRANCH   5   7
ATOM      6  O   UNL     1       3.044   7.627   0.000  0.00  0.00    +0.000 OA
ATOM      7  C   UNL     1       3.044   6.802   0.000  0.00  0.00    +0.000 C 
ATOM      8  N   UNL     1       2.329   6.390   0.000  0.00  0.00    +0.000 NA
ATOM      9  C   UNL     1       1.615   6.802   0.000  0.00  0.00    +0.000 C 
ENDBRANCH   5   7
BRANCH   5  10
ATOM     10  C   UNL     1       3.758   5.565   0.000  0.00  0.00    +0.000 C 
ATOM     11  C   UNL     1       3.758   4.740   0.000  0.00  0.00    +0.000 C 
ATOM     12  C   UNL     1       4.583   5.565   0.000  0.00  0.00    +0.000 C 
ATOM     13  C   UNL     1       2.933   5.565   0.000  0.00  0.00    +0.000 C 
ENDBRANCH   5  10
ENDBRANCH   2   5
ENDBRANCH   1   3
BRANCH   1  14
ATOM     14  C   UNL     1       5.902   7.627   0.000  0.00  0.00    +0.000 C 
BRANCH  14  15
ATOM     15  C   UNL     1       5.187   8.040   0.000  0.00  0.00    +0.000 C 
ATOM     16  C   UNL     1       4.473   7.627   0.000  0.00  0.00    +0.000 C 
ATOM     17  C   UNL     1       5.187   8.865   0.000  0.00  0.00    +0.000 C 
ENDBRANCH  14  15
ENDBRANCH   1  14
BRANCH   1  18
ATOM     18  C   UNL     1       6.616   6.390   0.000  0.00  0.00    +0.000 C 
BRANCH  18  19
ATOM     19  C   UNL     1       6.616   5.565   0.000  0.00  0.00    +0.000 C 
ATOM     20  O   UNL     1       5.902   5.152   0.000  0.00  0.00    +0.000 OA
ATOM     21  N   UNL     1       7.330   5.152   0.000  0.00  0.00    +0.000 NA
ATOM     22  O   UNL     1       7.330   4.327   0.000  0.00  0.00    +0.000 OA
ENDBRANCH  18  19
BRANCH  18  23
ATOM     23  C   UNL     1       7.330   6.802   0.000  0.00  0.00    +0.000 C 
BRANCH  23  24
ATOM     24  N   UNL     1       8.045   6.390   0.000  0.00  0.00    +0.000 NA
ATOM     25  C   UNL     1       8.759   6.802   0.000  0.00  0.00    +0.000 C 
ATOM     26  O   UNL     1       8.759   7.627   0.000  0.00  0.00    +0.000 OA
BRANCH  25  27
ATOM     27  C   UNL     1       9.474   6.390   0.000  0.00  0.00    +0.000 A 
ATOM     28  N   UNL     1      10.227   6.725   0.000  0.00  0.00    +0.000 NA
ATOM     29  C   UNL     1      10.780   6.112   0.000  0.00  0.00    +0.000 A 
ATOM     30  C   UNL     1      10.367   5.398   0.000  0.00  0.00    +0.000 A 
ATOM     31  S   UNL     1       9.560   5.569   0.000  0.00  0.00    +0.000 S 
ENDBRANCH  25  27
ENDBRANCH  23  24
ENDBRANCH  18  23
ENDBRANCH   1  18
TORSDOF 11
