REMARK  Name = WRA
REMARK  6 active torsions:
REMARK  status: ('A' for Active; 'I' for Inactive)
REMARK    1  A    between atoms: N_6  and  O_7
REMARK    2  A    between atoms: O_7  and  C_8
REMARK    3  A    between atoms: C_8  and  C_9
REMARK    4  A    between atoms: C_9  and  C_10
REMARK    5  A    between atoms: C_10  and  O_11
REMARK    6  A    between atoms: O_11  and  C_12
REMARK                            x       y       z     vdW  Elec       q    Type
REMARK                         _______ _______ _______ _____ _____    ______ ____
ROOT
ATOM      1  C   UNL     1      -0.325   0.320   0.000  0.00  0.00    +0.000 C 
ENDROOT
BRANCH   1   2
ATOM      2  O   UNL     1      -1.039   0.733   0.000  0.00  0.00    +0.000 OA
BRANCH   2   8
ATOM      3  C   UNL     1      -1.754  -0.505   0.000  0.00  0.00    +0.000 C 
ATOM      4  N   UNL     1      -2.468  -0.917   0.000  0.00  0.00    +0.000 NA
ATOM      5  C   UNL     1      -3.183  -0.505   0.000  0.00  0.00    +0.000 C 
ATOM      6  N   UNL     1      -3.183   0.320   0.000  0.00  0.00    +0.000 NA
ATOM      7  C   UNL     1      -2.468   0.733   0.000  0.00  0.00    +0.000 C 
ATOM      8  N   UNL     1      -1.754   0.320   0.000  0.00  0.00    +0.000 N 
ATOM      9  C   UNL     1      -1.317  -1.204   0.000  0.00  0.00    +0.000 C 
ATOM     10  C   UNL     1      -0.929  -0.534   0.000  0.00  0.00    +0.000 C 
ATOM     11  N   UNL     1      -3.897  -0.917   0.000  0.00  0.00    +0.000 NA
ATOM     12  N   UNL     1      -2.468   1.558   0.000  0.00  0.00    +0.000 NA
ENDBRANCH   2   8
ENDBRANCH   1   2
BRANCH   1  13
ATOM     13  C   UNL     1       0.390   0.733   0.000  0.00  0.00    +0.000 C 
BRANCH  13  14
ATOM     14  C   UNL     1       1.104   0.320   0.000  0.00  0.00    +0.000 C 
BRANCH  14  15
ATOM     15  O   UNL     1       1.819   0.733   0.000  0.00  0.00    +0.000 OA
BRANCH  15  16
ATOM     16  C   UNL     1       2.533   0.320   0.000  0.00  0.00    +0.000 A 
ATOM     17  C   UNL     1       3.248   0.733   0.000  0.00  0.00    +0.000 A 
ATOM     18  C   UNL     1       3.962   0.320   0.000  0.00  0.00    +0.000 A 
ATOM     19  C   UNL     1       3.962  -0.505   0.000  0.00  0.00    +0.000 A 
ATOM     20  C   UNL     1       3.248  -0.917   0.000  0.00  0.00    +0.000 A 
ATOM     21  C   UNL     1       2.533  -0.505   0.000  0.00  0.00    +0.000 A 
ATOM     22 CL   UNL     1       3.248   1.558   0.000  0.00  0.00    +0.000 Cl
ATOM     23 CL   UNL     1       4.676  -0.917   0.000  0.00  0.00    +0.000 Cl
ATOM     24 CL   UNL     1       3.248  -1.742   0.000  0.00  0.00    +0.000 Cl
ENDBRANCH  15  16
ENDBRANCH  14  15
ENDBRANCH  13  14
ENDBRANCH   1  13
TORSDOF 6
