REMARK  Name = WRB
REMARK  6 active torsions:
REMARK  status: ('A' for Active; 'I' for Inactive)
REMARK    1  A    between atoms: N_6  and  O_7
REMARK    2  A    between atoms: O_7  and  C_8
REMARK    3  A    between atoms: C_8  and  C_9
REMARK    4  A    between atoms: C_9  and  C_10
REMARK    5  A    between atoms: C_10  and  O_11
REMARK    6  A    between atoms: O_11  and  C_12
REMARK                            x       y       z     vdW  Elec       q    Type
REMARK                         _______ _______ _______ _____ _____    ______ ____
ROOT
ATOM      1  O   UNL     1      -1.107   0.737   0.000  0.00  0.00    +0.000 OA
ENDROOT
BRANCH   1   7
ATOM      2  C   UNL     1      -1.822  -0.501   0.000  0.00  0.00    +0.000 C 
ATOM      3  N   UNL     1      -2.536  -0.913   0.000  0.00  0.00    +0.000 NA
ATOM      4  C   UNL     1      -3.251  -0.501   0.000  0.00  0.00    +0.000 C 
ATOM      5  N   UNL     1      -3.251   0.324   0.000  0.00  0.00    +0.000 NA
ATOM      6  C   UNL     1      -2.536   0.737   0.000  0.00  0.00    +0.000 C 
ATOM      7  N   UNL     1      -1.822   0.324   0.000  0.00  0.00    +0.000 N 
ATOM      8  C   UNL     1      -1.385  -1.200   0.000  0.00  0.00    +0.000 C 
ATOM      9  C   UNL     1      -0.997  -0.529   0.000  0.00  0.00    +0.000 C 
ATOM     10  N   UNL     1      -3.965  -0.913   0.000  0.00  0.00    +0.000 NA
ATOM     11  N   UNL     1      -2.536   1.562   0.000  0.00  0.00    +0.000 NA
ENDBRANCH   1   7
BRANCH   1  12
ATOM     12  C   UNL     1      -0.393   0.324   0.000  0.00  0.00    +0.000 C 
BRANCH  12  13
ATOM     13  C   UNL     1       0.322   0.737   0.000  0.00  0.00    +0.000 C 
BRANCH  13  14
ATOM     14  C   UNL     1       1.036   0.324   0.000  0.00  0.00    +0.000 C 
BRANCH  14  15
ATOM     15  O   UNL     1       1.751   0.737   0.000  0.00  0.00    +0.000 OA
BRANCH  15  16
ATOM     16  C   UNL     1       2.465   0.324   0.000  0.00  0.00    +0.000 A 
ATOM     17  C   UNL     1       3.180   0.737   0.000  0.00  0.00    +0.000 A 
ATOM     18  C   UNL     1       3.894   0.324   0.000  0.00  0.00    +0.000 A 
ATOM     19  C   UNL     1       2.465  -0.501   0.000  0.00  0.00    +0.000 A 
ATOM     20  C   UNL     1       3.180  -0.913   0.000  0.00  0.00    +0.000 A 
ATOM     21  C   UNL     1       3.894  -0.501   0.000  0.00  0.00    +0.000 A 
ATOM     22 BR   UNL     1       4.609  -0.913   0.000  0.00  0.00    +0.000 Br
ENDBRANCH  15  16
ENDBRANCH  14  15
ENDBRANCH  13  14
ENDBRANCH  12  13
ENDBRANCH   1  12
TORSDOF 6
