REMARK  Name = WST
REMARK  1 active torsions:
REMARK  status: ('A' for Active; 'I' for Inactive)
REMARK    1  A    between atoms: C_9  and  C_15
REMARK                            x       y       z     vdW  Elec       q    Type
REMARK                         _______ _______ _______ _____ _____    ______ ____
ROOT
ATOM      1  C   UNL     1       0.984  -1.094   0.000  0.00  0.00    +0.000 A 
ATOM      2  C   UNL     1       1.419  -1.795   0.000  0.00  0.00    +0.000 A 
ATOM      3  O   UNL     1       1.029  -2.522   0.000  0.00  0.00    +0.000 OA
ATOM      4  C   UNL     1       2.243  -1.769   0.000  0.00  0.00    +0.000 A 
ATOM      5  C   UNL     1       2.633  -1.042   0.000  0.00  0.00    +0.000 A 
ATOM      6  C   UNL     1       2.199  -0.341   0.000  0.00  0.00    +0.000 A 
ATOM      7  C   UNL     1       1.374  -0.367   0.000  0.00  0.00    +0.000 A 
ATOM      8  O   UNL     1       0.940   0.335   0.000  0.00  0.00    +0.000 OA
ATOM      9  C   UNL     1       0.115   0.309   0.000  0.00  0.00    +0.000 C 
ATOM     10  C   UNL     1      -0.275  -0.418   0.000  0.00  0.00    +0.000 C 
ATOM     11  C   UNL     1       0.160  -1.120   0.000  0.00  0.00    +0.000 C 
ATOM     12  C   UNL     1      -0.373  -1.750   0.000  0.00  0.00    +0.000 C 
ATOM     13  C   UNL     1      -1.137  -1.438   0.000  0.00  0.00    +0.000 C 
ATOM     14  C   UNL     1      -1.076  -0.615   0.000  0.00  0.00    +0.000 C 
ENDROOT
BRANCH   9  15
ATOM     15  C   UNL     1      -0.320   1.010   0.000  0.00  0.00    +0.000 A 
ATOM     16  C   UNL     1       0.070   1.737   0.000  0.00  0.00    +0.000 A 
ATOM     17  C   UNL     1      -0.364   2.438   0.000  0.00  0.00    +0.000 A 
ATOM     18  C   UNL     1      -1.189   2.412   0.000  0.00  0.00    +0.000 A 
ATOM     19  O   UNL     1      -1.623   3.114   0.000  0.00  0.00    +0.000 OA
ATOM     20  C   UNL     1      -1.579   1.685   0.000  0.00  0.00    +0.000 A 
ATOM     21  C   UNL     1      -1.144   0.984   0.000  0.00  0.00    +0.000 A 
ENDBRANCH   9  15
TORSDOF 1
