REMARK  Name = WW7
REMARK  8 active torsions:
REMARK  status: ('A' for Active; 'I' for Inactive)
REMARK    1  A    between atoms: S_1  and  N_4
REMARK    2  A    between atoms: S_1  and  C_8
REMARK    3  A    between atoms: N_4  and  C_16
REMARK    4  A    between atoms: C_16  and  C_17
REMARK    5  A    between atoms: C_17  and  C_19
REMARK    6  A    between atoms: C_18  and  C_19
REMARK    7  A    between atoms: C_18  and  C_20
REMARK    8  A    between atoms: C_20  and  C_21
REMARK                            x       y       z     vdW  Elec       q    Type
REMARK                         _______ _______ _______ _____ _____    ______ ____
ROOT
ATOM      1  S   UNL     1      -1.442  -0.478   0.000  0.00  0.00    +0.000 S 
ATOM      2  O   UNL     1      -1.854  -1.193   0.000  0.00  0.00    +0.000 OA
ATOM      3  O   UNL     1      -1.029   0.236   0.000  0.00  0.00    +0.000 OA
ENDROOT
BRANCH   1   7
ATOM      4  C   UNL     1      -3.585   0.759   0.000  0.00  0.00    +0.000 A 
ATOM      5  C   UNL     1      -3.585  -0.066   0.000  0.00  0.00    +0.000 A 
ATOM      6  C   UNL     1      -2.871  -0.478   0.000  0.00  0.00    +0.000 A 
ATOM      7  C   UNL     1      -2.156  -0.066   0.000  0.00  0.00    +0.000 A 
ATOM      8  C   UNL     1      -2.156   0.759   0.000  0.00  0.00    +0.000 A 
ATOM      9  C   UNL     1      -2.871   1.172   0.000  0.00  0.00    +0.000 A 
ATOM     10 CL   UNL     1      -3.585   2.409   0.000  0.00  0.00    +0.000 Cl
ATOM     11  C   UNL     1      -2.871   1.997   0.000  0.00  0.00    +0.000 A 
ATOM     12  C   UNL     1      -2.156   2.409   0.000  0.00  0.00    +0.000 A 
ATOM     13  C   UNL     1      -1.442   1.997   0.000  0.00  0.00    +0.000 A 
ATOM     14  C   UNL     1      -1.442   1.172   0.000  0.00  0.00    +0.000 A 
ENDBRANCH   1   7
BRANCH   1  15
ATOM     15  N   UNL     1      -0.727  -0.891   0.000  0.00  0.00    +0.000 NA
BRANCH  15  16
ATOM     16  C   UNL     1      -0.013  -0.478   0.000  0.00  0.00    +0.000 C 
BRANCH  16  17
ATOM     17  C   UNL     1       0.702  -0.891   0.000  0.00  0.00    +0.000 C 
BRANCH  17  18
ATOM     18  C   UNL     1       1.416  -0.478   0.000  0.00  0.00    +0.000 C 
BRANCH  18  19
ATOM     19  C   UNL     1       2.131  -0.891   0.000  0.00  0.00    +0.000 C 
BRANCH  19  20
ATOM     20  C   UNL     1       2.845  -0.478   0.000  0.00  0.00    +0.000 C 
BRANCH  20  21
ATOM     21  C   UNL     1       3.559  -0.891   0.000  0.00  0.00    +0.000 C 
ATOM     22  N   UNL     1       4.274  -0.478   0.000  0.00  0.00    +0.000 NA
ENDBRANCH  20  21
ENDBRANCH  19  20
ENDBRANCH  18  19
ENDBRANCH  17  18
ENDBRANCH  16  17
ENDBRANCH  15  16
ENDBRANCH   1  15
TORSDOF 8
