REMARK  Name = X98
REMARK  5 active torsions:
REMARK  status: ('A' for Active; 'I' for Inactive)
REMARK    1  A    between atoms: C_1  and  C_3
REMARK    2  A    between atoms: C_3  and  C_4
REMARK    3  A    between atoms: C_4  and  N_5
REMARK    4  A    between atoms: C_7  and  C_16
REMARK    5  A    between atoms: C_23  and  C_24
REMARK                            x       y       z     vdW  Elec       q    Type
REMARK                         _______ _______ _______ _____ _____    ______ ____
ROOT
ATOM      1  N   UNL     1       0.214   1.052   0.000  0.00  0.00    +0.000 N 
ATOM      2  C   UNL     1      -0.501   1.464   0.000  0.00  0.00    +0.000 A 
ATOM      3  C   UNL     1      -0.501   2.289   0.000  0.00  0.00    +0.000 A 
ATOM      4  N   UNL     1       0.214   2.701   0.000  0.00  0.00    +0.000 NA
ATOM      5  C   UNL     1       0.928   2.289   0.000  0.00  0.00    +0.000 A 
ATOM      6  C   UNL     1       1.643   2.701   0.000  0.00  0.00    +0.000 A 
ATOM      7  C   UNL     1       2.357   2.289   0.000  0.00  0.00    +0.000 A 
ATOM      8  C   UNL     1       2.357   1.464   0.000  0.00  0.00    +0.000 A 
ATOM      9  C   UNL     1       1.643   1.052   0.000  0.00  0.00    +0.000 A 
ATOM     10  C   UNL     1       0.928   1.464   0.000  0.00  0.00    +0.000 A 
ATOM     11  O   UNL     1      -1.215   1.052   0.000  0.00  0.00    +0.000 OA
ENDROOT
BRANCH   3  12
ATOM     12  C   UNL     1      -1.215   2.701   0.000  0.00  0.00    +0.000 A 
ATOM     13  C   UNL     1      -1.929   2.289   0.000  0.00  0.00    +0.000 A 
ATOM     14  C   UNL     1      -2.644   2.701   0.000  0.00  0.00    +0.000 A 
ATOM     15  C   UNL     1      -2.644   3.526   0.000  0.00  0.00    +0.000 A 
ATOM     16  C   UNL     1      -1.929   3.939   0.000  0.00  0.00    +0.000 A 
ATOM     17  C   UNL     1      -1.215   3.526   0.000  0.00  0.00    +0.000 A 
ENDBRANCH   3  12
BRANCH   1  18
ATOM     18  C   UNL     1       0.214   0.227   0.000  0.00  0.00    +0.000 C 
BRANCH  18  19
ATOM     19  C   UNL     1      -0.501  -0.186   0.000  0.00  0.00    +0.000 C 
BRANCH  19  20
ATOM     20  C   UNL     1      -0.501  -1.011   0.000  0.00  0.00    +0.000 C 
ATOM     21  O   UNL     1       0.214  -1.423   0.000  0.00  0.00    +0.000 OA
ATOM     22  N   UNL     1      -1.215  -1.423   0.000  0.00  0.00    +0.000 N 
ATOM     23  C   UNL     1      -1.301  -2.244   0.000  0.00  0.00    +0.000 C 
ATOM     24  C   UNL     1      -2.108  -2.416   0.000  0.00  0.00    +0.000 C 
ATOM     25  C   UNL     1      -2.521  -1.701   0.000  0.00  0.00    +0.000 C 
ATOM     26  C   UNL     1      -1.969  -1.088   0.000  0.00  0.00    +0.000 C 
BRANCH  23  27
ATOM     27  C   UNL     1      -0.688  -2.796   0.000  0.00  0.00    +0.000 C 
ATOM     28  O   UNL     1      -0.860  -3.603   0.000  0.00  0.00    +0.000 OA
ATOM     29  N   UNL     1       0.096  -2.541   0.000  0.00  0.00    +0.000 N 
ATOM     30  C   UNL     1       0.351  -1.756   0.000  0.00  0.00    +0.000 C 
ATOM     31  C   UNL     1       0.764  -3.026   0.000  0.00  0.00    +0.000 C 
ATOM     32  C   UNL     1       1.431  -2.541   0.000  0.00  0.00    +0.000 C 
ATOM     33  C   UNL     1       1.176  -1.756   0.000  0.00  0.00    +0.000 C 
ENDBRANCH  23  27
ENDBRANCH  19  20
ENDBRANCH  18  19
ENDBRANCH   1  18
TORSDOF 5
