REMARK  Name = X99
REMARK  4 active torsions:
REMARK  status: ('A' for Active; 'I' for Inactive)
REMARK    1  A    between atoms: C_1  and  C_3
REMARK    2  A    between atoms: C_3  and  C_4
REMARK    3  A    between atoms: C_4  and  N_5
REMARK    4  A    between atoms: C_18  and  C_21
REMARK                            x       y       z     vdW  Elec       q    Type
REMARK                         _______ _______ _______ _____ _____    ______ ____
ROOT
ATOM      1  C   UNL     1       0.200   0.151   0.000  0.00  0.00    +0.000 C 
ATOM      2  O   UNL     1      -0.213   0.866   0.000  0.00  0.00    +0.000 OA
ATOM      3  N   UNL     1      -0.213  -0.563   0.000  0.00  0.00    +0.000 N 
ATOM      4  C   UNL     1       0.123  -1.317   0.000  0.00  0.00    +0.000 C 
ATOM      5  C   UNL     1      -1.033  -0.649   0.000  0.00  0.00    +0.000 C 
ATOM      6  C   UNL     1      -1.205  -1.456   0.000  0.00  0.00    +0.000 C 
ATOM      7  C   UNL     1      -0.490  -1.869   0.000  0.00  0.00    +0.000 C 
ATOM      8  F   UNL     1      -0.818  -2.626   0.000  0.00  0.00    +0.000 F 
ATOM      9  F   UNL     1      -0.012  -2.541   0.000  0.00  0.00    +0.000 F 
ENDROOT
BRANCH   5  10
ATOM     10  C   UNL     1      -1.585  -0.036   0.000  0.00  0.00    +0.000 C 
ATOM     11  O   UNL     1      -1.330   0.748   0.000  0.00  0.00    +0.000 OA
ATOM     12  N   UNL     1      -2.392  -0.208   0.000  0.00  0.00    +0.000 N 
ATOM     13  C   UNL     1      -2.728  -0.962   0.000  0.00  0.00    +0.000 C 
ATOM     14  C   UNL     1      -3.005   0.344   0.000  0.00  0.00    +0.000 C 
ATOM     15  C   UNL     1      -3.720  -0.068   0.000  0.00  0.00    +0.000 C 
ATOM     16  C   UNL     1      -3.548  -0.875   0.000  0.00  0.00    +0.000 C 
ENDBRANCH   5  10
BRANCH   1  17
ATOM     17  C   UNL     1       1.025   0.151   0.000  0.00  0.00    +0.000 C 
BRANCH  17  18
ATOM     18  C   UNL     1       1.437   0.866   0.000  0.00  0.00    +0.000 C 
BRANCH  18  19
ATOM     19  N   UNL     1       2.262   0.866   0.000  0.00  0.00    +0.000 N 
ATOM     20  C   UNL     1       2.747   0.198   0.000  0.00  0.00    +0.000 C 
ATOM     21  C   UNL     1       2.747   1.533   0.000  0.00  0.00    +0.000 C 
ATOM     22  O   UNL     1       2.492  -0.586   0.000  0.00  0.00    +0.000 OA
ATOM     23  O   UNL     1       2.492   2.318   0.000  0.00  0.00    +0.000 OA
ATOM     24  C   UNL     1       3.532   0.453   0.000  0.00  0.00    +0.000 A 
ATOM     25  C   UNL     1       4.246   0.041   0.000  0.00  0.00    +0.000 A 
ATOM     26  C   UNL     1       4.961   0.453   0.000  0.00  0.00    +0.000 A 
ATOM     27  C   UNL     1       4.961   1.278   0.000  0.00  0.00    +0.000 A 
ATOM     28  C   UNL     1       4.246   1.691   0.000  0.00  0.00    +0.000 A 
ATOM     29  C   UNL     1       3.532   1.278   0.000  0.00  0.00    +0.000 A 
ENDBRANCH  18  19
ENDBRANCH  17  18
ENDBRANCH   1  17
TORSDOF 4
