REMARK  Name = XAO
REMARK  6 active torsions:
REMARK  status: ('A' for Active; 'I' for Inactive)
REMARK    1  A    between atoms: C_1  and  C_3
REMARK    2  A    between atoms: C_1  and  C_11
REMARK    3  A    between atoms: C_3  and  C_5
REMARK    4  A    between atoms: C_5  and  C_7
REMARK    5  A    between atoms: C_7  and  C_8
REMARK    6  A    between atoms: C_11  and  C_12
REMARK                            x       y       z     vdW  Elec       q    Type
REMARK                         _______ _______ _______ _____ _____    ______ ____
ROOT
ATOM      1  C   UNL     1       0.145   0.119   0.000  0.00  0.00    +0.000 C 
ATOM      2  N   UNL     1       0.145  -0.706   0.000  0.00  0.00    +0.000 NA
ENDROOT
BRANCH   1   3
ATOM      3  C   UNL     1      -0.569   0.531   0.000  0.00  0.00    +0.000 C 
ATOM      4  O   UNL     1      -0.569   1.356   0.000  0.00  0.00    +0.000 OA
BRANCH   3   5
ATOM      5  C   UNL     1      -1.284   0.119   0.000  0.00  0.00    +0.000 C 
ATOM      6  O   UNL     1      -1.284  -0.706   0.000  0.00  0.00    +0.000 OA
BRANCH   5   7
ATOM      7  C   UNL     1      -1.998   0.531   0.000  0.00  0.00    +0.000 C 
BRANCH   7   8
ATOM      8  C   UNL     1      -2.713   0.119   0.000  0.00  0.00    +0.000 C 
ATOM      9  C   UNL     1      -3.427   0.531   0.000  0.00  0.00    +0.000 C 
ATOM     10  C   UNL     1      -2.713  -0.706   0.000  0.00  0.00    +0.000 C 
ENDBRANCH   7   8
ENDBRANCH   5   7
ENDBRANCH   3   5
ENDBRANCH   1   3
BRANCH   1  11
ATOM     11  C   UNL     1       0.860   0.531   0.000  0.00  0.00    +0.000 C 
BRANCH  11  12
ATOM     12  C   UNL     1       1.574   0.119   0.000  0.00  0.00    +0.000 C 
ATOM     13  C   UNL     1       2.289   0.531   0.000  0.00  0.00    +0.000 C 
ATOM     14  C   UNL     1       1.574  -0.706   0.000  0.00  0.00    +0.000 C 
ATOM     15  C   UNL     1       3.003   0.119   0.000  0.00  0.00    +0.000 C 
ATOM     16  C   UNL     1       2.289  -1.119   0.000  0.00  0.00    +0.000 C 
ATOM     17  C   UNL     1       3.003  -0.706   0.000  0.00  0.00    +0.000 C 
ENDBRANCH  11  12
ENDBRANCH   1  11
TORSDOF 6
