REMARK  Name = XCF
REMARK  5 active torsions:
REMARK  status: ('A' for Active; 'I' for Inactive)
REMARK    1  A    between atoms: C_6  and  C_9
REMARK    2  A    between atoms: C_9  and  C_10
REMARK    3  A    between atoms: C_14  and  C_15
REMARK    4  A    between atoms: C_20  and  O_21
REMARK    5  A    between atoms: C_23  and  O_25
REMARK                            x       y       z     vdW  Elec       q    Type
REMARK                         _______ _______ _______ _____ _____    ______ ____
ROOT
ATOM      1  C   UNL     1      -0.344   0.332   0.000  0.00  0.00    +0.000 A 
ATOM      2  C   UNL     1       0.370  -0.080   0.000  0.00  0.00    +0.000 A 
ATOM      3  C   UNL     1       1.085   0.332   0.000  0.00  0.00    +0.000 C 
ATOM      4  C   UNL     1       1.799  -0.080   0.000  0.00  0.00    +0.000 C 
ATOM      5  C   UNL     1       1.799  -0.905   0.000  0.00  0.00    +0.000 C 
ATOM      6  O   UNL     1       1.085  -1.318   0.000  0.00  0.00    +0.000 OA
ATOM      7  C   UNL     1       0.370  -0.905   0.000  0.00  0.00    +0.000 A 
ATOM      8  C   UNL     1      -0.344  -1.318   0.000  0.00  0.00    +0.000 A 
ATOM      9  C   UNL     1      -1.058  -0.905   0.000  0.00  0.00    +0.000 A 
ATOM     10  C   UNL     1      -1.058  -0.080   0.000  0.00  0.00    +0.000 A 
ENDROOT
BRANCH   5  11
ATOM     11  C   UNL     1       2.514  -1.318   0.000  0.00  0.00    +0.000 C 
ATOM     12  C   UNL     1       3.339  -1.318   0.000  0.00  0.00    +0.000 C 
ATOM     13  C   UNL     1       2.926  -2.032   0.000  0.00  0.00    +0.000 C 
ENDBRANCH   5  11
BRANCH   8  14
ATOM     14  O   UNL     1      -0.344  -2.143   0.000  0.00  0.00    +0.000 OA
ATOM     15  C   UNL     1      -1.058  -2.555   0.000  0.00  0.00    +0.000 C 
ENDBRANCH   8  14
BRANCH   9  16
ATOM     16  O   UNL     1      -1.773  -1.318   0.000  0.00  0.00    +0.000 OA
ATOM     17  C   UNL     1      -2.487  -0.905   0.000  0.00  0.00    +0.000 C 
ENDBRANCH   9  16
BRANCH   1  18
ATOM     18  C   UNL     1      -0.344   1.157   0.000  0.00  0.00    +0.000 C 
BRANCH  18  24
ATOM     19  N   UNL     1      -3.202   2.807   0.000  0.00  0.00    +0.000 NA
ATOM     20  C   UNL     1      -2.487   2.395   0.000  0.00  0.00    +0.000 A 
ATOM     21  N   UNL     1      -1.773   2.807   0.000  0.00  0.00    +0.000 NA
ATOM     22  N   UNL     1      -2.487   1.570   0.000  0.00  0.00    +0.000 NA
ATOM     23  C   UNL     1      -1.773   1.157   0.000  0.00  0.00    +0.000 A 
ATOM     24  C   UNL     1      -1.058   1.570   0.000  0.00  0.00    +0.000 A 
ATOM     25  C   UNL     1      -1.058   2.395   0.000  0.00  0.00    +0.000 A 
ATOM     26  N   UNL     1      -0.344   2.807   0.000  0.00  0.00    +0.000 NA
ENDBRANCH  18  24
ENDBRANCH   1  18
TORSDOF 5
