REMARK  Name = XE4
REMARK  4 active torsions:
REMARK  status: ('A' for Active; 'I' for Inactive)
REMARK    1  A    between atoms: C_7  and  C_8
REMARK    2  A    between atoms: C_20  and  C_21
REMARK    3  A    between atoms: C_22  and  C_23
REMARK    4  A    between atoms: C_24  and  C_25
REMARK                            x       y       z     vdW  Elec       q    Type
REMARK                         _______ _______ _______ _____ _____    ______ ____
ROOT
ATOM      1  C   UNL     1       0.694  -1.497   0.000  0.00  0.00    +0.000 C 
ATOM      2  C   UNL     1       0.694  -0.672   0.000  0.00  0.00    +0.000 C 
ATOM      3  C   UNL     1      -0.021  -0.260   0.000  0.00  0.00    +0.000 C 
ATOM      4  C   UNL     1      -0.021   0.565   0.000  0.00  0.00    +0.000 C 
ATOM      5  C   UNL     1       0.694   0.978   0.000  0.00  0.00    +0.000 C 
ATOM      6  C   UNL     1       1.408   0.565   0.000  0.00  0.00    +0.000 C 
ATOM      7  C   UNL     1       1.408  -0.260   0.000  0.00  0.00    +0.000 C 
ATOM      8  C   UNL     1      -0.805  -0.515   0.000  0.00  0.00    +0.000 C 
ATOM      9  C   UNL     1      -1.290   0.153   0.000  0.00  0.00    +0.000 C 
ATOM     10  C   UNL     1      -0.805   0.820   0.000  0.00  0.00    +0.000 C 
ATOM     11  C   UNL     1      -0.107   1.386   0.000  0.00  0.00    +0.000 C 
ENDROOT
BRANCH   1  18
ATOM     12  C   UNL     1       2.123  -3.147   0.000  0.00  0.00    +0.000 C 
ATOM     13  C   UNL     1       2.123  -3.972   0.000  0.00  0.00    +0.000 C 
ATOM     14  C   UNL     1       1.408  -4.385   0.000  0.00  0.00    +0.000 C 
ATOM     15  C   UNL     1       0.694  -3.972   0.000  0.00  0.00    +0.000 C 
ATOM     16  C   UNL     1       0.694  -3.147   0.000  0.00  0.00    +0.000 C 
ATOM     17  C   UNL     1       1.408  -2.735   0.000  0.00  0.00    +0.000 C 
ATOM     18  C   UNL     1       1.408  -1.910   0.000  0.00  0.00    +0.000 C 
ATOM     19  C   UNL     1      -0.021  -2.735   0.000  0.00  0.00    +0.000 C 
ATOM     20  O   UNL     1       2.837  -4.385   0.000  0.00  0.00    +0.000 OA
ATOM     21  O   UNL     1      -0.021  -4.385   0.000  0.00  0.00    +0.000 OA
ENDBRANCH   1  18
BRANCH  10  22
ATOM     22  C   UNL     1      -1.060   1.605   0.000  0.00  0.00    +0.000 C 
ATOM     23  C   UNL     1      -1.315   2.389   0.000  0.00  0.00    +0.000 C 
BRANCH  23  24
ATOM     24  C   UNL     1      -1.570   3.174   0.000  0.00  0.00    +0.000 C 
ATOM     25  C   UNL     1      -1.825   3.959   0.000  0.00  0.00    +0.000 C 
BRANCH  25  26
ATOM     26  C   UNL     1      -2.080   4.743   0.000  0.00  0.00    +0.000 C 
ATOM     27  C   UNL     1      -2.335   5.528   0.000  0.00  0.00    +0.000 C 
ATOM     28  O   UNL     1      -1.296   4.998   0.000  0.00  0.00    +0.000 OA
ATOM     29  C   UNL     1      -2.865   4.488   0.000  0.00  0.00    +0.000 C 
ENDBRANCH  25  26
ENDBRANCH  23  24
ENDBRANCH  10  22
TORSDOF 4
