REMARK  Name = XIH
REMARK  3 active torsions:
REMARK  status: ('A' for Active; 'I' for Inactive)
REMARK    1  A    between atoms: C_7  and  N_22
REMARK    2  A    between atoms: C_7  and  C_23
REMARK    3  A    between atoms: C_11  and  C_25
REMARK                            x       y       z     vdW  Elec       q    Type
REMARK                         _______ _______ _______ _____ _____    ______ ____
ROOT
ATOM      1  C   UNL     1       0.564   0.413   0.000  0.00  0.00    +0.000 A 
ATOM      2  C   UNL     1       0.564   1.238   0.000  0.00  0.00    +0.000 A 
ATOM      3  C   UNL     1      -0.705   0.825   0.000  0.00  0.00    +0.000 A 
ATOM      4  C   UNL     1      -1.943   1.540   0.000  0.00  0.00    +0.000 C 
ATOM      5  C   UNL     1      -2.768   0.111   0.000  0.00  0.00    +0.000 C 
ATOM      6  C   UNL     1      -1.943   0.111   0.000  0.00  0.00    +0.000 C 
ATOM      7  C   UNL     1       1.993   1.238   0.000  0.00  0.00    +0.000 A 
ATOM      8  C   UNL     1       2.708   0.000   0.000  0.00  0.00    +0.000 C 
ATOM      9  N   UNL     1       1.993   0.413   0.000  0.00  0.00    +0.000 N 
ATOM     10  C   UNL     1       1.279   0.000   0.000  0.00  0.00    +0.000 A 
ATOM     11  O   UNL     1       1.279  -0.825   0.000  0.00  0.00    +0.000 OA
ATOM     12  N   UNL     1      -0.220   1.493   0.000  0.00  0.00    +0.000 NA
ATOM     13  N   UNL     1      -1.530   0.825   0.000  0.00  0.00    +0.000 N 
ATOM     14  C   UNL     1      -2.768   1.540   0.000  0.00  0.00    +0.000 C 
ATOM     15  C   UNL     1      -3.180   0.825   0.000  0.00  0.00    +0.000 C 
ATOM     16  N   UNL     1      -3.180  -0.604   0.000  0.00  0.00    +0.000 NA
ATOM     17  N   UNL     1      -0.220   0.158   0.000  0.00  0.00    +0.000 N 
ATOM     18  N   UNL     1       1.279   1.650   0.000  0.00  0.00    +0.000 N 
ATOM     19  C   UNL     1       1.279   2.475   0.000  0.00  0.00    +0.000 C 
ATOM     20  O   UNL     1       2.708   1.650   0.000  0.00  0.00    +0.000 OA
ENDROOT
BRANCH  17  21
ATOM     21  C   UNL     1      -0.475  -0.627   0.000  0.00  0.00    +0.000 C 
BRANCH  21  25
ATOM     22  C   UNL     1       1.436  -1.681   0.000  0.00  0.00    +0.000 A 
ATOM     23  C   UNL     1       1.181  -2.466   0.000  0.00  0.00    +0.000 A 
ATOM     24  C   UNL     1       0.374  -2.638   0.000  0.00  0.00    +0.000 A 
ATOM     25  C   UNL     1       0.077  -1.240   0.000  0.00  0.00    +0.000 A 
ATOM     26  C   UNL     1       0.884  -1.068   0.000  0.00  0.00    +0.000 A 
ATOM     27  C   UNL     1      -0.178  -2.025   0.000  0.00  0.00    +0.000 A 
BRANCH  27  28
ATOM     28  C   UNL     1      -0.985  -2.196   0.000  0.00  0.00    +0.000 C 
ATOM     29  N   UNL     1      -1.792  -2.368   0.000  0.00  0.00    +0.000 NA
ENDBRANCH  27  28
ENDBRANCH  21  25
ENDBRANCH  17  21
TORSDOF 3
