REMARK  Name = XMJ
REMARK  6 active torsions:
REMARK  status: ('A' for Active; 'I' for Inactive)
REMARK    1  A    between atoms: C_1  and  C_5
REMARK    2  A    between atoms: C_2  and  S_4
REMARK    3  A    between atoms: S_4  and  N_11
REMARK    4  A    between atoms: N_16  and  C_20
REMARK    5  A    between atoms: C_20  and  C_28
REMARK    6  A    between atoms: N_22  and  C_23
REMARK                            x       y       z     vdW  Elec       q    Type
REMARK                         _______ _______ _______ _____ _____    ______ ____
ROOT
ATOM      1  C   UNL     1       0.977  -1.508   0.000  0.00  0.00    +0.000 C 
ATOM      2  O   UNL     1       1.692  -1.921   0.000  0.00  0.00    +0.000 OA
ATOM      3  C   UNL     1       0.263  -1.921   0.000  0.00  0.00    +0.000 C 
ATOM      4  N   UNL     1      -0.452  -1.508   0.000  0.00  0.00    +0.000 NA
ATOM      5  C   UNL     1       0.263  -0.271   0.000  0.00  0.00    +0.000 C 
ATOM      6  C   UNL     1      -0.452  -0.683   0.000  0.00  0.00    +0.000 C 
ATOM      7  N   UNL     1       0.977  -0.683   0.000  0.00  0.00    +0.000 N 
ENDROOT
BRANCH   4   8
ATOM      8  S   UNL     1      -1.166  -1.921   0.000  0.00  0.00    +0.000 S 
ATOM      9  O   UNL     1      -0.754  -2.635   0.000  0.00  0.00    +0.000 OA
ATOM     10  O   UNL     1      -1.579  -1.206   0.000  0.00  0.00    +0.000 OA
BRANCH   8  12
ATOM     11  C   UNL     1      -2.595  -1.921   0.000  0.00  0.00    +0.000 C 
ATOM     12  C   UNL     1      -1.881  -2.333   0.000  0.00  0.00    +0.000 C 
BRANCH  11  14
ATOM     13  C   UNL     1      -4.024  -1.921   0.000  0.00  0.00    +0.000 A 
ATOM     14  C   UNL     1      -3.310  -2.333   0.000  0.00  0.00    +0.000 A 
ATOM     15 CL   UNL     1      -5.453  -3.571   0.000  0.00  0.00    +0.000 Cl
ATOM     16  C   UNL     1      -3.310  -3.159   0.000  0.00  0.00    +0.000 A 
ATOM     17  C   UNL     1      -4.739  -2.333   0.000  0.00  0.00    +0.000 A 
ATOM     18  C   UNL     1      -4.024  -3.571   0.000  0.00  0.00    +0.000 A 
ATOM     19  C   UNL     1      -4.739  -3.159   0.000  0.00  0.00    +0.000 A 
ENDBRANCH  11  14
ENDBRANCH   8  12
ENDBRANCH   4   8
BRANCH   7  20
ATOM     20  C   UNL     1       1.692  -0.271   0.000  0.00  0.00    +0.000 C 
BRANCH  20  24
ATOM     21  N   UNL     1       1.692   2.204   0.000  0.00  0.00    +0.000 N 
ATOM     22  C   UNL     1       2.406   1.792   0.000  0.00  0.00    +0.000 C 
ATOM     23  C   UNL     1       0.977   1.792   0.000  0.00  0.00    +0.000 C 
ATOM     24  C   UNL     1       1.692   0.554   0.000  0.00  0.00    +0.000 C 
ATOM     25  C   UNL     1       2.406   0.967   0.000  0.00  0.00    +0.000 C 
ATOM     26  C   UNL     1       0.977   0.967   0.000  0.00  0.00    +0.000 C 
BRANCH  21  28
ATOM     27  C   UNL     1       2.406   4.266   0.000  0.00  0.00    +0.000 A 
ATOM     28  C   UNL     1       1.692   3.029   0.000  0.00  0.00    +0.000 A 
ATOM     29  C   UNL     1       2.406   3.442   0.000  0.00  0.00    +0.000 A 
ATOM     30  C   UNL     1       0.977   3.442   0.000  0.00  0.00    +0.000 A 
ATOM     31  N   UNL     1       1.692   4.679   0.000  0.00  0.00    +0.000 NA
ATOM     32  C   UNL     1       0.977   4.266   0.000  0.00  0.00    +0.000 A 
ENDBRANCH  21  28
ENDBRANCH  20  24
ENDBRANCH   7  20
TORSDOF 6
