REMARK  Name = XMK
REMARK  6 active torsions:
REMARK  status: ('A' for Active; 'I' for Inactive)
REMARK    1  A    between atoms: C_1  and  C_9
REMARK    2  A    between atoms: C_1  and  N_28
REMARK    3  A    between atoms: N_3  and  C_4
REMARK    4  A    between atoms: C_14  and  C_18
REMARK    5  A    between atoms: C_15  and  S_17
REMARK    6  A    between atoms: S_17  and  N_23
REMARK                            x       y       z     vdW  Elec       q    Type
REMARK                         _______ _______ _______ _____ _____    ______ ____
ROOT
ATOM      1  C   UNL     1       1.883   0.171   0.000  0.00  0.00    +0.000 C 
ATOM      2  C   UNL     1       1.883  -0.654   0.000  0.00  0.00    +0.000 C 
ATOM      3  N   UNL     1       1.169  -1.067   0.000  0.00  0.00    +0.000 NA
ATOM      4  C   UNL     1       0.454   0.171   0.000  0.00  0.00    +0.000 C 
ATOM      5  C   UNL     1       0.454  -0.654   0.000  0.00  0.00    +0.000 C 
ATOM      6  N   UNL     1       1.169   0.583   0.000  0.00  0.00    +0.000 NA
ENDROOT
BRANCH   3   7
ATOM      7  S   UNL     1       1.169  -1.892   0.000  0.00  0.00    +0.000 S 
ATOM      8  O   UNL     1       1.994  -1.892   0.000  0.00  0.00    +0.000 OA
ATOM      9  O   UNL     1       0.344  -1.892   0.000  0.00  0.00    +0.000 OA
BRANCH   7  11
ATOM     10  C   UNL     1       0.454  -3.129   0.000  0.00  0.00    +0.000 C 
ATOM     11  C   UNL     1       1.169  -2.717   0.000  0.00  0.00    +0.000 C 
BRANCH  10  13
ATOM     12  C   UNL     1      -0.260  -4.367   0.000  0.00  0.00    +0.000 A 
ATOM     13  C   UNL     1       0.454  -3.954   0.000  0.00  0.00    +0.000 A 
ATOM     14 CL   UNL     1       0.454  -6.429   0.000  0.00  0.00    +0.000 Cl
ATOM     15  C   UNL     1       1.169  -4.367   0.000  0.00  0.00    +0.000 A 
ATOM     16  C   UNL     1      -0.260  -5.192   0.000  0.00  0.00    +0.000 A 
ATOM     17  C   UNL     1       1.169  -5.192   0.000  0.00  0.00    +0.000 A 
ATOM     18  C   UNL     1       0.454  -5.604   0.000  0.00  0.00    +0.000 A 
ENDBRANCH  10  13
ENDBRANCH   7  11
ENDBRANCH   3   7
BRANCH   6  19
ATOM     19  C   UNL     1       1.169   1.408   0.000  0.00  0.00    +0.000 C 
BRANCH  19  23
ATOM     20  N   UNL     1      -0.975   2.646   0.000  0.00  0.00    +0.000 N 
ATOM     21  C   UNL     1      -0.260   3.058   0.000  0.00  0.00    +0.000 C 
ATOM     22  C   UNL     1      -0.975   1.821   0.000  0.00  0.00    +0.000 C 
ATOM     23  C   UNL     1       0.454   1.821   0.000  0.00  0.00    +0.000 C 
ATOM     24  C   UNL     1       0.454   2.646   0.000  0.00  0.00    +0.000 C 
ATOM     25  C   UNL     1      -0.260   1.408   0.000  0.00  0.00    +0.000 C 
BRANCH  20  27
ATOM     26  C   UNL     1      -2.404   4.296   0.000  0.00  0.00    +0.000 A 
ATOM     27  C   UNL     1      -1.689   3.058   0.000  0.00  0.00    +0.000 A 
ATOM     28  C   UNL     1      -1.689   3.883   0.000  0.00  0.00    +0.000 A 
ATOM     29  C   UNL     1      -2.404   2.646   0.000  0.00  0.00    +0.000 A 
ATOM     30  N   UNL     1      -3.118   3.883   0.000  0.00  0.00    +0.000 NA
ATOM     31  C   UNL     1      -3.118   3.058   0.000  0.00  0.00    +0.000 A 
ENDBRANCH  20  27
ENDBRANCH  19  23
ENDBRANCH   6  19
TORSDOF 6
