REMARK  Name = XND
REMARK  1 active torsions:
REMARK  status: ('A' for Active; 'I' for Inactive)
REMARK    1  A    between atoms: C_8  and  C_9
REMARK                            x       y       z     vdW  Elec       q    Type
REMARK                         _______ _______ _______ _____ _____    ______ ____
ROOT
ATOM      1  C   UNL     1       0.598  -0.589   0.000  0.00  0.00    +0.000 C 
ATOM      2  C   UNL     1       0.083   0.056   0.000  0.00  0.00    +0.000 C 
ATOM      3  C   UNL     1      -0.705  -0.187   0.000  0.00  0.00    +0.000 C 
ATOM      4  O   UNL     1      -0.889  -0.992   0.000  0.00  0.00    +0.000 OA
ATOM      5  C   UNL     1      -1.310   0.374   0.000  0.00  0.00    +0.000 C 
ATOM      6  N   UNL     1       1.423  -0.589   0.000  0.00  0.00    +0.000 N 
ATOM      7  C   UNL     1       1.781  -1.332   0.000  0.00  0.00    +0.000 C 
ATOM      8  C   UNL     1       2.603  -1.394   0.000  0.00  0.00    +0.000 C 
ATOM      9  O   UNL     1       1.805  -2.157   0.000  0.00  0.00    +0.000 OA
ATOM     10  C   UNL     1       1.937   0.056   0.000  0.00  0.00    +0.000 A 
ATOM     11  C   UNL     1       2.725  -0.187   0.000  0.00  0.00    +0.000 A 
ATOM     12  C   UNL     1       3.330   0.374   0.000  0.00  0.00    +0.000 A 
ATOM     13  C   UNL     1       3.147   1.178   0.000  0.00  0.00    +0.000 A 
ATOM     14  C   UNL     1       2.358   1.421   0.000  0.00  0.00    +0.000 A 
ATOM     15  O   UNL     1       2.175   2.226   0.000  0.00  0.00    +0.000 OA
ATOM     16  C   UNL     1       1.754   0.860   0.000  0.00  0.00    +0.000 A 
ATOM     17  N   UNL     1       1.010   1.218   0.000  0.00  0.00    +0.000 NA
ATOM     18  C   UNL     1       0.267   0.860   0.000  0.00  0.00    +0.000 C 
ATOM     19  C   UNL     1      -0.338   1.421   0.000  0.00  0.00    +0.000 C 
ATOM     20  C   UNL     1      -1.126   1.178   0.000  0.00  0.00    +0.000 C 
ATOM     21  C   UNL     1      -1.924   1.390   0.000  0.00  0.00    +0.000 C 
ATOM     22  C   UNL     1      -1.397   1.958   0.000  0.00  0.00    +0.000 C 
ENDROOT
BRANCH   1  30
ATOM     23 CL   UNL     1      -0.834  -3.562   0.000  0.00  0.00    +0.000 Cl
ATOM     24  C   UNL     1      -0.476  -2.819   0.000  0.00  0.00    +0.000 A 
ATOM     25  C   UNL     1       0.347  -2.757   0.000  0.00  0.00    +0.000 A 
ATOM     26  C   UNL     1       0.705  -2.014   0.000  0.00  0.00    +0.000 A 
ATOM     27 CL   UNL     1       1.527  -1.952   0.000  0.00  0.00    +0.000 Cl
ATOM     28  C   UNL     1      -0.941  -2.137   0.000  0.00  0.00    +0.000 A 
ATOM     29  C   UNL     1      -0.583  -1.394   0.000  0.00  0.00    +0.000 A 
ATOM     30  C   UNL     1       0.240  -1.332   0.000  0.00  0.00    +0.000 A 
ENDBRANCH   1  30
TORSDOF 1
