REMARK  Name = XP1
REMARK  2 active torsions:
REMARK  status: ('A' for Active; 'I' for Inactive)
REMARK    1  A    between atoms: N_2  and  C_4
REMARK    2  A    between atoms: C_7  and  C_8
REMARK                            x       y       z     vdW  Elec       q    Type
REMARK                         _______ _______ _______ _____ _____    ______ ____
ROOT
ATOM      1  C   UNL     1      -8.967 -22.769   0.000  0.00  0.00    +0.000 A 
ATOM      2  C   UNL     1      -8.967 -23.594   0.000  0.00  0.00    +0.000 A 
ATOM      3  C   UNL     1      -9.682 -24.006   0.000  0.00  0.00    +0.000 A 
ATOM      4  C   UNL     1     -10.396 -23.594   0.000  0.00  0.00    +0.000 A 
ATOM      5  C   UNL     1     -10.396 -22.769   0.000  0.00  0.00    +0.000 A 
ATOM      6  C   UNL     1      -9.682 -22.356   0.000  0.00  0.00    +0.000 A 
ENDROOT
BRANCH   1   8
ATOM      7  C   UNL     1      -8.253 -21.531   0.000  0.00  0.00    +0.000 C 
ATOM      8  N   UNL     1      -8.253 -22.356   0.000  0.00  0.00    +0.000 N 
ATOM      9  C   UNL     1      -7.538 -22.769   0.000  0.00  0.00    +0.000 C 
ENDBRANCH   1   8
BRANCH   4  10
ATOM     10  C   UNL     1     -11.111 -24.006   0.000  0.00  0.00    +0.000 C 
ATOM     11  O   UNL     1     -11.111 -24.831   0.000  0.00  0.00    +0.000 OA
ATOM     12  O   UNL     1     -11.825 -23.594   0.000  0.00  0.00    +0.000 OA
ENDBRANCH   4  10
TORSDOF 2
