REMARK  Name = XX4
REMARK  6 active torsions:
REMARK  status: ('A' for Active; 'I' for Inactive)
REMARK    1  A    between atoms: N_2  and  C_26
REMARK    2  A    between atoms: C_3  and  C_5
REMARK    3  A    between atoms: C_5  and  C_6
REMARK    4  A    between atoms: C_6  and  N_7
REMARK    5  A    between atoms: C_11  and  C_12
REMARK    6  A    between atoms: C_12  and  C_14
REMARK                            x       y       z     vdW  Elec       q    Type
REMARK                         _______ _______ _______ _____ _____    ______ ____
ROOT
ATOM      1  N   UNL     1       0.773  -0.135   0.000  0.00  0.00    +0.000 N 
ATOM      2  C   UNL     1       1.488   0.277   0.000  0.00  0.00    +0.000 C 
ATOM      3  C   UNL     1       2.202  -0.135   0.000  0.00  0.00    +0.000 A 
ATOM      4  C   UNL     1       2.917   0.277   0.000  0.00  0.00    +0.000 A 
ATOM      5  C   UNL     1       3.631  -0.135   0.000  0.00  0.00    +0.000 A 
ATOM      6  C   UNL     1       3.631  -0.960   0.000  0.00  0.00    +0.000 A 
ATOM      7  C   UNL     1       2.917  -1.373   0.000  0.00  0.00    +0.000 A 
ATOM      8  C   UNL     1       2.202  -0.960   0.000  0.00  0.00    +0.000 A 
ATOM      9  N   UNL     1       1.488  -1.373   0.000  0.00  0.00    +0.000 NA
ATOM     10  C   UNL     1       0.773  -0.960   0.000  0.00  0.00    +0.000 C 
ATOM     11  N   UNL     1       0.059  -1.373   0.000  0.00  0.00    +0.000 NA
ENDROOT
BRANCH   5  12
ATOM     12  C   UNL     1       4.345   0.277   0.000  0.00  0.00    +0.000 C 
ATOM     13  O   UNL     1       4.345   1.102   0.000  0.00  0.00    +0.000 OA
BRANCH  12  14
ATOM     14  C   UNL     1       5.060  -0.135   0.000  0.00  0.00    +0.000 A 
ATOM     15  C   UNL     1       5.774   0.277   0.000  0.00  0.00    +0.000 A 
ATOM     16  C   UNL     1       6.489  -0.135   0.000  0.00  0.00    +0.000 A 
ATOM     17  C   UNL     1       6.489  -0.960   0.000  0.00  0.00    +0.000 A 
ATOM     18  C   UNL     1       5.774  -1.373   0.000  0.00  0.00    +0.000 A 
ATOM     19  C   UNL     1       5.060  -0.960   0.000  0.00  0.00    +0.000 A 
ENDBRANCH  12  14
ENDBRANCH   5  12
BRANCH   1  20
ATOM     20  C   UNL     1       0.059   0.277   0.000  0.00  0.00    +0.000 C 
BRANCH  20  21
ATOM     21  C   UNL     1      -0.656  -0.135   0.000  0.00  0.00    +0.000 C 
BRANCH  21  24
ATOM     22  C   UNL     1      -2.085  -0.960   0.000  0.00  0.00    +0.000 C 
ATOM     23  N   UNL     1      -2.085  -0.135   0.000  0.00  0.00    +0.000 N 
ATOM     24  C   UNL     1      -1.370   0.277   0.000  0.00  0.00    +0.000 C 
ATOM     25  O   UNL     1      -1.370   1.102   0.000  0.00  0.00    +0.000 OA
BRANCH  23  26
ATOM     26  C   UNL     1      -2.799   0.277   0.000  0.00  0.00    +0.000 C 
ATOM     27  C   UNL     1      -3.514  -0.135   0.000  0.00  0.00    +0.000 C 
ATOM     28  C   UNL     1      -4.228   0.277   0.000  0.00  0.00    +0.000 C 
ATOM     29  C   UNL     1      -4.228   1.102   0.000  0.00  0.00    +0.000 C 
ATOM     30  C   UNL     1      -3.514   1.515   0.000  0.00  0.00    +0.000 C 
ATOM     31  C   UNL     1      -2.799   1.102   0.000  0.00  0.00    +0.000 C 
ENDBRANCH  23  26
ENDBRANCH  21  24
ENDBRANCH  20  21
ENDBRANCH   1  20
TORSDOF 6
