REMARK  Name = XXZ
REMARK  2 active torsions:
REMARK  status: ('A' for Active; 'I' for Inactive)
REMARK    1  A    between atoms: C_18  and  C_27
REMARK    2  A    between atoms: C_22  and  C_23
REMARK                            x       y       z     vdW  Elec       q    Type
REMARK                         _______ _______ _______ _____ _____    ______ ____
ROOT
ATOM      1  F   UNL     1       3.438  -1.079   0.000  0.00  0.00    +0.000 F 
ATOM      2  C   UNL     1       3.209  -0.287   0.000  0.00  0.00    +0.000 A 
ATOM      3  C   UNL     1       3.781   0.308   0.000  0.00  0.00    +0.000 A 
ATOM      4  C   UNL     1       3.552   1.100   0.000  0.00  0.00    +0.000 A 
ATOM      5  C   UNL     1       2.751   1.298   0.000  0.00  0.00    +0.000 A 
ATOM      6  C   UNL     1       2.179   0.704   0.000  0.00  0.00    +0.000 A 
ATOM      7  C   UNL     1       2.408  -0.089   0.000  0.00  0.00    +0.000 A 
ATOM      8  C   UNL     1       1.836  -0.683   0.000  0.00  0.00    +0.000 C 
ATOM      9  N   UNL     1       1.035  -0.485   0.000  0.00  0.00    +0.000 NA
ATOM     10  N   UNL     1       2.065  -1.476   0.000  0.00  0.00    +0.000 NA
ATOM     11  N   UNL     1       1.378   0.902   0.000  0.00  0.00    +0.000 NA
ATOM     12  C   UNL     1       0.806   0.308   0.000  0.00  0.00    +0.000 C 
ATOM     13  C   UNL     1       0.234  -0.287   0.000  0.00  0.00    +0.000 C 
ATOM     14  C   UNL     1      -0.567  -0.089   0.000  0.00  0.00    +0.000 C 
ATOM     15  N   UNL     1      -0.795   0.704   0.000  0.00  0.00    +0.000 N 
ATOM     16  C   UNL     1      -0.223   1.298   0.000  0.00  0.00    +0.000 C 
ATOM     17  C   UNL     1       0.578   1.100   0.000  0.00  0.00    +0.000 C 
ATOM     18  C   UNL     1      -1.596   0.902   0.000  0.00  0.00    +0.000 C 
ATOM     19  O   UNL     1      -1.825   1.695   0.000  0.00  0.00    +0.000 OA
ENDROOT
BRANCH  18  25
ATOM     20  C   UNL     1      -1.939  -0.485   0.000  0.00  0.00    +0.000 A 
ATOM     21  C   UNL     1      -3.312  -0.881   0.000  0.00  0.00    +0.000 A 
ATOM     22  C   UNL     1      -3.541  -0.089   0.000  0.00  0.00    +0.000 A 
ATOM     23  C   UNL     1      -2.969   0.506   0.000  0.00  0.00    +0.000 A 
ATOM     24  C   UNL     1      -2.511  -1.079   0.000  0.00  0.00    +0.000 A 
ATOM     25  C   UNL     1      -2.168   0.308   0.000  0.00  0.00    +0.000 A 
BRANCH  21  27
ATOM     26  N   UNL     1      -3.655  -2.268   0.000  0.00  0.00    +0.000 NA
ATOM     27  C   UNL     1      -3.884  -1.476   0.000  0.00  0.00    +0.000 C 
ENDBRANCH  21  27
ENDBRANCH  18  25
TORSDOF 2
