REMARK  Name = XY2
REMARK  5 active torsions:
REMARK  status: ('A' for Active; 'I' for Inactive)
REMARK    1  A    between atoms: C_1  and  N_16
REMARK    2  A    between atoms: N_7  and  C_9
REMARK    3  A    between atoms: C_9  and  C_10
REMARK    4  A    between atoms: C_10  and  N_11
REMARK    5  A    between atoms: N_11  and  C_21
REMARK                            x       y       z     vdW  Elec       q    Type
REMARK                         _______ _______ _______ _____ _____    ______ ____
ROOT
ATOM      1  C   UNL     1       3.008   0.662   0.000  0.00  0.00    +0.000 A 
ATOM      2  C   UNL     1       3.008  -0.163   0.000  0.00  0.00    +0.000 A 
ATOM      3  C   UNL     1       2.293  -0.576   0.000  0.00  0.00    +0.000 A 
ATOM      4  N   UNL     1       3.621  -0.715   0.000  0.00  0.00    +0.000 NA
ATOM      5  O   UNL     1       3.285  -1.469   0.000  0.00  0.00    +0.000 OA
ATOM      6  N   UNL     1       2.465  -1.383   0.000  0.00  0.00    +0.000 NA
ATOM      7  C   UNL     1       2.293   1.074   0.000  0.00  0.00    +0.000 A 
ATOM      8  C   UNL     1       1.579   0.662   0.000  0.00  0.00    +0.000 A 
ATOM      9  C   UNL     1       1.579  -0.163   0.000  0.00  0.00    +0.000 A 
ENDROOT
BRANCH   1  10
ATOM     10  N   UNL     1       3.722   1.074   0.000  0.00  0.00    +0.000 N 
ATOM     11  O   UNL     1       3.722   1.899   0.000  0.00  0.00    +0.000 OA
ATOM     12  O   UNL     1       4.437   0.662   0.000  0.00  0.00    +0.000 OA
ENDBRANCH   1  10
BRANCH   9  13
ATOM     13  N   UNL     1       0.864  -0.576   0.000  0.00  0.00    +0.000 N 
ATOM     14  C   UNL     1       0.864  -1.401   0.000  0.00  0.00    +0.000 C 
BRANCH  13  15
ATOM     15  C   UNL     1       0.150  -0.163   0.000  0.00  0.00    +0.000 C 
BRANCH  15  16
ATOM     16  C   UNL     1      -0.565  -0.576   0.000  0.00  0.00    +0.000 C 
BRANCH  16  20
ATOM     17  C   UNL     1      -2.708  -0.163   0.000  0.00  0.00    +0.000 C 
ATOM     18  C   UNL     1      -1.994  -0.576   0.000  0.00  0.00    +0.000 C 
ATOM     19  O   UNL     1      -1.994  -1.401   0.000  0.00  0.00    +0.000 OA
ATOM     20  N   UNL     1      -1.279  -0.163   0.000  0.00  0.00    +0.000 N 
ATOM     21  C   UNL     1      -1.279   0.662   0.000  0.00  0.00    +0.000 C 
ENDBRANCH  16  20
ENDBRANCH  15  16
ENDBRANCH  13  15
ENDBRANCH   9  13
TORSDOF 5
