REMARK  Name = Y12
REMARK  9 active torsions:
REMARK  status: ('A' for Active; 'I' for Inactive)
REMARK    1  A    between atoms: C_4  and  C_5
REMARK    2  A    between atoms: C_5  and  C_6
REMARK    3  A    between atoms: C_6  and  N_7
REMARK    4  A    between atoms: C_8  and  C_10
REMARK    5  A    between atoms: C_11  and  C_12
REMARK    6  A    between atoms: C_14  and  O_15
REMARK    7  A    between atoms: O_15  and  C_16
REMARK    8  A    between atoms: C_19  and  O_20
REMARK    9  A    between atoms: O_20  and  C_21
REMARK                            x       y       z     vdW  Elec       q    Type
REMARK                         _______ _______ _______ _____ _____    ______ ____
ROOT
ATOM      1  C   UNL     1       1.157  -0.017   0.000  0.00  0.00    +0.000 A 
ATOM      2  C   UNL     1       1.872   0.395   0.000  0.00  0.00    +0.000 A 
ATOM      3  C   UNL     1       2.586  -0.017   0.000  0.00  0.00    +0.000 A 
ATOM      4  C   UNL     1       2.586  -0.842   0.000  0.00  0.00    +0.000 A 
ATOM      5  C   UNL     1       1.872  -1.255   0.000  0.00  0.00    +0.000 A 
ATOM      6  C   UNL     1       1.157  -0.842   0.000  0.00  0.00    +0.000 A 
ENDROOT
BRANCH   1   8
ATOM      7  C   UNL     1      -0.272  -0.017   0.000  0.00  0.00    +0.000 C 
ATOM      8  C   UNL     1       0.443   0.395   0.000  0.00  0.00    +0.000 C 
BRANCH   7  10
ATOM      9  N   UNL     1      -1.700  -0.017   0.000  0.00  0.00    +0.000 NA
ATOM     10  C   UNL     1      -0.986   0.395   0.000  0.00  0.00    +0.000 C 
ATOM     11  O   UNL     1      -0.986   1.220   0.000  0.00  0.00    +0.000 OA
BRANCH   9  12
ATOM     12  C   UNL     1      -2.415   0.395   0.000  0.00  0.00    +0.000 C 
BRANCH  12  13
ATOM     13  C   UNL     1      -3.129  -0.017   0.000  0.00  0.00    +0.000 C 
BRANCH  13  17
ATOM     14  C   UNL     1      -5.273   1.220   0.000  0.00  0.00    +0.000 A 
ATOM     15  C   UNL     1      -4.558   1.633   0.000  0.00  0.00    +0.000 A 
ATOM     16  C   UNL     1      -3.844   1.220   0.000  0.00  0.00    +0.000 A 
ATOM     17  C   UNL     1      -3.844   0.395   0.000  0.00  0.00    +0.000 A 
ATOM     18  C   UNL     1      -4.558  -0.017   0.000  0.00  0.00    +0.000 A 
ATOM     19  C   UNL     1      -5.273   0.395   0.000  0.00  0.00    +0.000 A 
ENDBRANCH  13  17
ENDBRANCH  12  13
ENDBRANCH   9  12
ENDBRANCH   7  10
ENDBRANCH   1   8
BRANCH   4  20
ATOM     20  O   UNL     1       3.301  -1.255   0.000  0.00  0.00    +0.000 OA
BRANCH  20  21
ATOM     21  C   UNL     1       3.301  -2.080   0.000  0.00  0.00    +0.000 C 
ATOM     22  O   UNL     1       4.015  -2.492   0.000  0.00  0.00    +0.000 OA
ATOM     23  C   UNL     1       2.586  -2.492   0.000  0.00  0.00    +0.000 C 
ENDBRANCH  20  21
ENDBRANCH   4  20
BRANCH   3  24
ATOM     24  O   UNL     1       3.301   0.395   0.000  0.00  0.00    +0.000 OA
BRANCH  24  25
ATOM     25  C   UNL     1       3.301   1.220   0.000  0.00  0.00    +0.000 C 
ATOM     26  O   UNL     1       2.586   1.633   0.000  0.00  0.00    +0.000 OA
ATOM     27  C   UNL     1       4.015   1.633   0.000  0.00  0.00    +0.000 C 
ENDBRANCH  24  25
ENDBRANCH   3  24
TORSDOF 9
