REMARK  Name = Y15
REMARK  10 active torsions:
REMARK  status: ('A' for Active; 'I' for Inactive)
REMARK    1  A    between atoms: N_9  and  C_10
REMARK    2  A    between atoms: C_10  and  C_11
REMARK    3  A    between atoms: C_10  and  C_18
REMARK    4  A    between atoms: C_11  and  C_12
REMARK    5  A    between atoms: C_20  and  O_23
REMARK    6  A    between atoms: C_20  and  C_33
REMARK    7  A    between atoms: N_22  and  C_33
REMARK    8  A    between atoms: O_23  and  C_24
REMARK    9  A    between atoms: C_24  and  C_25
REMARK   10  A    between atoms: C_31  and  C_33
REMARK                            x       y       z     vdW  Elec       q    Type
REMARK                         _______ _______ _______ _____ _____    ______ ____
ROOT
ATOM      1  C   UNL     1      -1.232   0.444   0.000  0.00  0.00    +0.000 C 
ENDROOT
BRANCH   1  10
ATOM      2  C   UNL     1      -2.646   0.648   0.000  0.00  0.00    +0.000 C 
ATOM      3  C   UNL     1      -3.176   1.975   0.000  0.00  0.00    +0.000 C 
ATOM      4  C   UNL     1      -3.825   2.485   0.000  0.00  0.00    +0.000 C 
ATOM      5  C   UNL     1      -4.709   1.362   0.000  0.00  0.00    +0.000 C 
ATOM      6  C   UNL     1      -4.061   0.852   0.000  0.00  0.00    +0.000 C 
ATOM      7  O   UNL     1      -2.764  -0.169   0.000  0.00  0.00    +0.000 OA
ATOM      8  O   UNL     1      -4.591   2.179   0.000  0.00  0.00    +0.000 OA
ATOM      9  N   UNL     1      -3.294   1.158   0.000  0.00  0.00    +0.000 N 
ATOM     10  N   UNL     1      -1.880   0.954   0.000  0.00  0.00    +0.000 NA
ENDBRANCH   1  10
BRANCH   1  11
ATOM     11  C   UNL     1      -0.466   0.750   0.000  0.00  0.00    +0.000 C 
ATOM     12  O   UNL     1      -0.348   1.567   0.000  0.00  0.00    +0.000 OA
ATOM     13  N   UNL     1       0.182   0.240   0.000  0.00  0.00    +0.000 NA
BRANCH  13  15
ATOM     14  C   UNL     1       0.642   1.312   0.000  0.00  0.00    +0.000 C 
ATOM     15  C   UNL     1       0.949   0.546   0.000  0.00  0.00    +0.000 C 
BRANCH  15  16
ATOM     16  C   UNL     1       1.255  -0.220   0.000  0.00  0.00    +0.000 C 
ATOM     17  N   UNL     1       1.561  -0.986   0.000  0.00  0.00    +0.000 NA
ENDBRANCH  15  16
BRANCH  15  18
ATOM     18  C   UNL     1       1.714   0.852   0.000  0.00  0.00    +0.000 C 
BRANCH  18  19
ATOM     19  O   UNL     1       2.363   0.342   0.000  0.00  0.00    +0.000 OA
BRANCH  19  20
ATOM     20  C   UNL     1       3.129   0.648   0.000  0.00  0.00    +0.000 C 
BRANCH  20  21
ATOM     21  C   UNL     1       3.777   0.138   0.000  0.00  0.00    +0.000 A 
ATOM     22  C   UNL     1       4.543   0.444   0.000  0.00  0.00    +0.000 A 
ATOM     23  C   UNL     1       5.191  -0.067   0.000  0.00  0.00    +0.000 A 
ATOM     24  C   UNL     1       5.074  -0.883   0.000  0.00  0.00    +0.000 A 
ATOM     25  C   UNL     1       4.307  -1.189   0.000  0.00  0.00    +0.000 A 
ATOM     26  C   UNL     1       3.659  -0.679   0.000  0.00  0.00    +0.000 A 
ENDBRANCH  20  21
ENDBRANCH  19  20
ENDBRANCH  18  19
ENDBRANCH  15  18
ENDBRANCH  13  15
ENDBRANCH   1  11
BRANCH   1  27
ATOM     27  C   UNL     1      -1.350  -0.373   0.000  0.00  0.00    +0.000 C 
BRANCH  27  28
ATOM     28  C   UNL     1      -0.702  -0.883   0.000  0.00  0.00    +0.000 C 
ATOM     29  C   UNL     1      -0.819  -1.700   0.000  0.00  0.00    +0.000 C 
ATOM     30  C   UNL     1      -0.171  -2.210   0.000  0.00  0.00    +0.000 C 
ATOM     31  C   UNL     1       0.595  -1.904   0.000  0.00  0.00    +0.000 C 
ATOM     32  C   UNL     1       0.713  -1.087   0.000  0.00  0.00    +0.000 C 
ATOM     33  C   UNL     1       0.065  -0.577   0.000  0.00  0.00    +0.000 C 
ENDBRANCH  27  28
ENDBRANCH   1  27
TORSDOF 10
