REMARK  Name = YE6
REMARK  2 active torsions:
REMARK  status: ('A' for Active; 'I' for Inactive)
REMARK    1  A    between atoms: C_7  and  C_8
REMARK    2  A    between atoms: C_12  and  C_13
REMARK                            x       y       z     vdW  Elec       q    Type
REMARK                         _______ _______ _______ _____ _____    ______ ____
ROOT
ATOM      1  C   UNL     1      -0.125   0.362   0.000  0.00  0.00    +0.000 A 
ATOM      2  O   UNL     1       0.542  -0.123   0.000  0.00  0.00    +0.000 OA
ATOM      3  C   UNL     1      -0.792  -0.123   0.000  0.00  0.00    +0.000 A 
ATOM      4  C   UNL     1      -0.537  -0.908   0.000  0.00  0.00    +0.000 A 
ATOM      5  C   UNL     1       0.287  -0.908   0.000  0.00  0.00    +0.000 A 
ENDROOT
BRANCH   1  12
ATOM      6 CL   UNL     1      -1.554   1.187   0.000  0.00  0.00    +0.000 Cl
ATOM      7  C   UNL     1      -0.839   1.599   0.000  0.00  0.00    +0.000 A 
ATOM      8  C   UNL     1      -0.839   2.424   0.000  0.00  0.00    +0.000 A 
ATOM      9  C   UNL     1      -0.125   2.837   0.000  0.00  0.00    +0.000 A 
ATOM     10  C   UNL     1       0.590   2.424   0.000  0.00  0.00    +0.000 A 
ATOM     11  C   UNL     1       0.590   1.599   0.000  0.00  0.00    +0.000 A 
ATOM     12  C   UNL     1      -0.125   1.187   0.000  0.00  0.00    +0.000 A 
ENDBRANCH   1  12
BRANCH   5  13
ATOM     13  C   UNL     1       0.772  -1.575   0.000  0.00  0.00    +0.000 C 
ATOM     14  O   UNL     1       1.593  -1.489   0.000  0.00  0.00    +0.000 OA
ATOM     15  N   UNL     1       0.437  -2.329   0.000  0.00  0.00    +0.000 NA
ATOM     16  N   UNL     1       0.922  -2.997   0.000  0.00  0.00    +0.000 NA
ENDBRANCH   5  13
TORSDOF 2
