REMARK  Name = YE7
REMARK  1 active torsions:
REMARK  status: ('A' for Active; 'I' for Inactive)
REMARK    1  A    between atoms: C_13  and  C_14
REMARK                            x       y       z     vdW  Elec       q    Type
REMARK                         _______ _______ _______ _____ _____    ______ ____
ROOT
ATOM      1  C   UNL     1      -0.314  -0.467   0.000  0.00  0.00    +0.000 A 
ATOM      2  N   UNL     1       0.487  -0.663   0.000  0.00  0.00    +0.000 N 
ATOM      3  C   UNL     1       0.877  -1.390   0.000  0.00  0.00    +0.000 A 
ATOM      4  C   UNL     1       1.702  -1.416   0.000  0.00  0.00    +0.000 A 
ATOM      5  C   UNL     1       2.136  -0.715   0.000  0.00  0.00    +0.000 A 
ATOM      6  C   UNL     1       2.961  -0.741   0.000  0.00  0.00    +0.000 A 
ATOM      7  C   UNL     1       3.396  -0.039   0.000  0.00  0.00    +0.000 A 
ATOM      8  C   UNL     1       3.006   0.688   0.000  0.00  0.00    +0.000 A 
ATOM      9  C   UNL     1       2.181   0.714   0.000  0.00  0.00    +0.000 A 
ATOM     10  C   UNL     1       1.746   0.012   0.000  0.00  0.00    +0.000 A 
ATOM     11  C   UNL     1       0.922   0.038   0.000  0.00  0.00    +0.000 A 
ATOM     12  N   UNL     1       0.389   0.668   0.000  0.00  0.00    +0.000 NA
ATOM     13  C   UNL     1      -0.375   0.356   0.000  0.00  0.00    +0.000 A 
ENDROOT
BRANCH  13  14
ATOM     14  C   UNL     1      -1.076   0.791   0.000  0.00  0.00    +0.000 C 
ATOM     15  O   UNL     1      -1.803   0.401   0.000  0.00  0.00    +0.000 OA
ATOM     16  N   UNL     1      -1.050   1.615   0.000  0.00  0.00    +0.000 NA
ATOM     17  N   UNL     1      -1.751   2.050   0.000  0.00  0.00    +0.000 NA
ENDBRANCH  13  14
TORSDOF 1
