REMARK  Name = YML
REMARK  8 active torsions:
REMARK  status: ('A' for Active; 'I' for Inactive)
REMARK    1  A    between atoms: C_1  and  C_4
REMARK    2  A    between atoms: C_1  and  C_8
REMARK    3  A    between atoms: C_2  and  C_3
REMARK    4  A    between atoms: C_2  and  C_7
REMARK    5  A    between atoms: C_3  and  C_6
REMARK    6  A    between atoms: C_4  and  C_5
REMARK    7  A    between atoms: C_5  and  C_7
REMARK    8  A    between atoms: C_6  and  P_9
REMARK                            x       y       z     vdW  Elec       q    Type
REMARK                         _______ _______ _______ _____ _____    ______ ____
ROOT
ATOM      1  C   UNL     1      -0.375  -0.101   0.000  0.00  0.00    +0.000 C 
ATOM      2  C   UNL     1      -0.375   0.724   0.000  0.00  0.00    +0.000 C 
ENDROOT
BRANCH   1   3
ATOM      3  C   UNL     1      -1.090  -0.514   0.000  0.00  0.00    +0.000 C 
ATOM      4  O   UNL     1      -1.090  -1.339   0.000  0.00  0.00    +0.000 OA
BRANCH   3   5
ATOM      5  C   UNL     1      -1.804  -0.101   0.000  0.00  0.00    +0.000 C 
BRANCH   5   6
ATOM      6  P   UNL     1      -2.518  -0.514   0.000  0.00  0.00    +0.000 P 
ATOM      7  O   UNL     1      -3.233  -0.101   0.000  0.00  0.00    +0.000 OA
ATOM      8  O   UNL     1      -2.518  -1.339   0.000  0.00  0.00    +0.000 OA
ATOM      9  H   UNL     1      -2.518   0.215   0.000  0.00  0.00    +0.000 HD
ENDBRANCH   5   6
ENDBRANCH   3   5
ENDBRANCH   1   3
BRANCH   1  10
ATOM     10  C   UNL     1       0.339  -0.514   0.000  0.00  0.00    +0.000 C 
ATOM     11  O   UNL     1       0.339  -1.339   0.000  0.00  0.00    +0.000 OA
BRANCH  10  12
ATOM     12  C   UNL     1       1.054  -0.101   0.000  0.00  0.00    +0.000 C 
ATOM     13  C   UNL     1       1.054   0.724   0.000  0.00  0.00    +0.000 C 
BRANCH  12  14
ATOM     14  C   UNL     1       1.768  -0.514   0.000  0.00  0.00    +0.000 C 
BRANCH  14  15
ATOM     15  C   UNL     1       2.483  -0.101   0.000  0.00  0.00    +0.000 C 
ATOM     16  C   UNL     1       2.483   0.724   0.000  0.00  0.00    +0.000 C 
BRANCH  15  17
ATOM     17  C   UNL     1       3.197  -0.514   0.000  0.00  0.00    +0.000 C 
ATOM     18  O   UNL     1       3.912  -0.101   0.000  0.00  0.00    +0.000 OA
ENDBRANCH  15  17
ENDBRANCH  14  15
ENDBRANCH  12  14
ENDBRANCH  10  12
ENDBRANCH   1  10
TORSDOF 8
