REMARK  Name = YPA
REMARK  9 active torsions:
REMARK  status: ('A' for Active; 'I' for Inactive)
REMARK    1  A    between atoms: N_9  and  C_14
REMARK    2  A    between atoms: C_14  and  C_15
REMARK    3  A    between atoms: C_15  and  O_16
REMARK    4  A    between atoms: O_16  and  C_17
REMARK    5  A    between atoms: C_20  and  C_23
REMARK    6  A    between atoms: C_23  and  C_24
REMARK    7  A    between atoms: C_24  and  C_25
REMARK    8  A    between atoms: C_24  and  O_28
REMARK    9  A    between atoms: O_28  and  C_29
REMARK                            x       y       z     vdW  Elec       q    Type
REMARK                         _______ _______ _______ _____ _____    ______ ____
ROOT
ATOM      1  C   UNL     1       1.335   0.015   0.000  0.00  0.00    +0.000 C 
ENDROOT
BRANCH   1   2
ATOM      2  O   UNL     1       1.335  -0.810   0.000  0.00  0.00    +0.000 OA
BRANCH   2   3
ATOM      3  C   UNL     1       0.620  -1.222   0.000  0.00  0.00    +0.000 A 
ATOM      4  C   UNL     1       0.620  -2.047   0.000  0.00  0.00    +0.000 A 
ATOM      5  C   UNL     1      -0.095  -2.460   0.000  0.00  0.00    +0.000 A 
ATOM      6  C   UNL     1      -0.809  -2.047   0.000  0.00  0.00    +0.000 A 
ATOM      7  C   UNL     1      -0.809  -1.222   0.000  0.00  0.00    +0.000 A 
ATOM      8  C   UNL     1      -0.095  -0.810   0.000  0.00  0.00    +0.000 A 
BRANCH   6   9
ATOM      9  C   UNL     1      -1.523  -2.460   0.000  0.00  0.00    +0.000 C 
BRANCH   9  10
ATOM     10  C   UNL     1      -2.238  -2.047   0.000  0.00  0.00    +0.000 C 
BRANCH  10  11
ATOM     11  C   UNL     1      -2.238  -1.222   0.000  0.00  0.00    +0.000 C 
ATOM     12  O   UNL     1      -2.952  -0.810   0.000  0.00  0.00    +0.000 OA
ATOM     13  O   UNL     1      -1.523  -0.810   0.000  0.00  0.00    +0.000 OA
ENDBRANCH  10  11
BRANCH  10  14
ATOM     14  O   UNL     1      -2.952  -2.460   0.000  0.00  0.00    +0.000 OA
BRANCH  14  15
ATOM     15  C   UNL     1      -3.667  -2.047   0.000  0.00  0.00    +0.000 C 
ATOM     16  C   UNL     1      -4.381  -2.460   0.000  0.00  0.00    +0.000 C 
ENDBRANCH  14  15
ENDBRANCH  10  14
ENDBRANCH   9  10
ENDBRANCH   6   9
ENDBRANCH   2   3
ENDBRANCH   1   2
BRANCH   1  17
ATOM     17  C   UNL     1       2.049   0.428   0.000  0.00  0.00    +0.000 C 
BRANCH  17  26
ATOM     18  C   UNL     1       3.820   2.964   0.000  0.00  0.00    +0.000 A 
ATOM     19  C   UNL     1       3.014   3.135   0.000  0.00  0.00    +0.000 A 
ATOM     20  C   UNL     1       2.461   2.522   0.000  0.00  0.00    +0.000 A 
ATOM     21  C   UNL     1       2.716   1.738   0.000  0.00  0.00    +0.000 A 
ATOM     22  C   UNL     1       3.523   1.566   0.000  0.00  0.00    +0.000 A 
ATOM     23  C   UNL     1       4.075   2.179   0.000  0.00  0.00    +0.000 A 
ATOM     24  C   UNL     1       1.636   2.522   0.000  0.00  0.00    +0.000 A 
ATOM     25  C   UNL     1       1.381   1.738   0.000  0.00  0.00    +0.000 A 
ATOM     26  N   UNL     1       2.049   1.253   0.000  0.00  0.00    +0.000 N 
ATOM     27  C   UNL     1       1.084   3.135   0.000  0.00  0.00    +0.000 A 
ATOM     28  C   UNL     1       0.277   2.964   0.000  0.00  0.00    +0.000 A 
ATOM     29  C   UNL     1       0.022   2.179   0.000  0.00  0.00    +0.000 A 
ATOM     30  C   UNL     1       0.575   1.566   0.000  0.00  0.00    +0.000 A 
ENDBRANCH  17  26
ENDBRANCH   1  17
TORSDOF 9
