REMARK  Name = YRG
REMARK  5 active torsions:
REMARK  status: ('A' for Active; 'I' for Inactive)
REMARK    1  A    between atoms: C_7  and  O_8
REMARK    2  A    between atoms: O_8  and  C_9
REMARK    3  A    between atoms: C_9  and  C_10
REMARK    4  A    between atoms: C_9  and  C_13
REMARK    5  A    between atoms: C_13  and  C_14
REMARK                            x       y       z     vdW  Elec       q    Type
REMARK                         _______ _______ _______ _____ _____    ______ ____
ROOT
ATOM      1  C   UNL     1      -0.409  -0.359   0.000  0.00  0.00    +0.000 C 
ENDROOT
BRANCH   1   2
ATOM      2  C   UNL     1      -0.409   0.466   0.000  0.00  0.00    +0.000 C 
ATOM      3  O   UNL     1      -1.124   0.879   0.000  0.00  0.00    +0.000 OA
ATOM      4  O   UNL     1       0.305   0.879   0.000  0.00  0.00    +0.000 OA
ENDBRANCH   1   2
BRANCH   1   5
ATOM      5  O   UNL     1      -1.124  -0.771   0.000  0.00  0.00    +0.000 OA
BRANCH   5  12
ATOM      6  C   UNL     1      -1.838   0.466   0.000  0.00  0.00    +0.000 A 
ATOM      7  C   UNL     1      -2.553   0.879   0.000  0.00  0.00    +0.000 A 
ATOM      8  C   UNL     1      -3.267   0.466   0.000  0.00  0.00    +0.000 A 
ATOM      9 CL   UNL     1      -3.982   0.879   0.000  0.00  0.00    +0.000 Cl
ATOM     10  C   UNL     1      -3.267  -0.359   0.000  0.00  0.00    +0.000 A 
ATOM     11  C   UNL     1      -2.553  -0.771   0.000  0.00  0.00    +0.000 A 
ATOM     12  C   UNL     1      -1.838  -0.359   0.000  0.00  0.00    +0.000 A 
ENDBRANCH   5  12
ENDBRANCH   1   5
BRANCH   1  13
ATOM     13  C   UNL     1       0.305  -0.771   0.000  0.00  0.00    +0.000 C 
BRANCH  13  14
ATOM     14  C   UNL     1       1.020  -0.359   0.000  0.00  0.00    +0.000 A 
ATOM     15  C   UNL     1       1.734  -0.771   0.000  0.00  0.00    +0.000 A 
ATOM     16  C   UNL     1       2.448  -0.359   0.000  0.00  0.00    +0.000 A 
ATOM     17  C   UNL     1       2.448   0.466   0.000  0.00  0.00    +0.000 A 
ATOM     18  C   UNL     1       1.734   0.879   0.000  0.00  0.00    +0.000 A 
ATOM     19  C   UNL     1       1.020   0.466   0.000  0.00  0.00    +0.000 A 
ENDBRANCH  13  14
ENDBRANCH   1  13
TORSDOF 5
