REMARK  Name = YTT
REMARK  4 active torsions:
REMARK  status: ('A' for Active; 'I' for Inactive)
REMARK    1  A    between atoms: CA_3  and  CB_4
REMARK    2  A    between atoms: CB_4  and  CG_5
REMARK    3  A    between atoms: CA_14  and  CB_17
REMARK    4  A    between atoms: CB_17  and  CG_18
REMARK                            x       y       z     vdW  Elec       q    Type
REMARK                         _______ _______ _______ _____ _____    ______ ____
ROOT
ATOM      1  O   TYR A   1       1.405  -0.821   0.000  0.00  0.00    +0.000 OA
ATOM      2  C   TYR A   1       0.691  -0.409   0.000  0.00  0.00    +0.000 C 
ATOM      3  CA  TYR A   1      -0.024  -0.821   0.000  0.00  0.00    +0.000 C 
ATOM      4  N   TYR A   1      -0.738  -0.409   0.000  0.00  0.00    +0.000 NA
ATOM      5  N   TYR A   2       0.691   0.416   0.000  0.00  0.00    +0.000 NA
ATOM      6  CA  TYR A   2      -0.024   0.829   0.000  0.00  0.00    +0.000 C 
ATOM      7  C   TYR A   2      -0.738   0.416   0.000  0.00  0.00    +0.000 C 
ATOM      8  O   TYR A   2      -1.453   0.829   0.000  0.00  0.00    +0.000 OA
ENDROOT
BRANCH   3   9
ATOM      9  CB  TYR A   1      -0.024  -1.646   0.000  0.00  0.00    +0.000 C 
BRANCH   9  10
ATOM     10  CG  TYR A   1      -0.738  -2.059   0.000  0.00  0.00    +0.000 A 
ATOM     11  CD1 TYR A   1      -0.738  -2.884   0.000  0.00  0.00    +0.000 A 
ATOM     12  CE1 TYR A   1      -1.453  -3.296   0.000  0.00  0.00    +0.000 A 
ATOM     13  CZ  TYR A   1      -2.167  -2.884   0.000  0.00  0.00    +0.000 A 
ATOM     14  OH  TYR A   1      -2.882  -3.296   0.000  0.00  0.00    +0.000 OA
ATOM     15  CE2 TYR A   1      -2.167  -2.059   0.000  0.00  0.00    +0.000 A 
ATOM     16  CD2 TYR A   1      -1.453  -1.646   0.000  0.00  0.00    +0.000 A 
ENDBRANCH   9  10
ENDBRANCH   3   9
BRANCH   6  17
ATOM     17  CB  TYR A   2      -0.024   1.654   0.000  0.00  0.00    +0.000 C 
BRANCH  17  18
ATOM     18  CG  TYR A   2       0.691   2.066   0.000  0.00  0.00    +0.000 A 
ATOM     19  CD1 TYR A   2       0.691   2.891   0.000  0.00  0.00    +0.000 A 
ATOM     20  CE1 TYR A   2       1.405   3.304   0.000  0.00  0.00    +0.000 A 
ATOM     21  CZ  TYR A   2       2.120   2.891   0.000  0.00  0.00    +0.000 A 
ATOM     22  OH  TYR A   2       2.834   3.304   0.000  0.00  0.00    +0.000 OA
ATOM     23  CE2 TYR A   2       2.120   2.066   0.000  0.00  0.00    +0.000 A 
ATOM     24  CD2 TYR A   2       1.405   1.654   0.000  0.00  0.00    +0.000 A 
ENDBRANCH  17  18
ENDBRANCH   6  17
TORSDOF 4
