REMARK  Name = YZ9
REMARK  3 active torsions:
REMARK  status: ('A' for Active; 'I' for Inactive)
REMARK    1  A    between atoms: C_2  and  O_4
REMARK    2  A    between atoms: O_4  and  C_12
REMARK    3  A    between atoms: C_12  and  C_16
REMARK                            x       y       z     vdW  Elec       q    Type
REMARK                         _______ _______ _______ _____ _____    ______ ____
ROOT
ATOM      1  C   UNL     1      -1.906  -0.551   0.000  0.00  0.00    +0.000 A 
ATOM      2  C   UNL     1      -0.477  -0.551   0.000  0.00  0.00    +0.000 A 
ATOM      3  C   UNL     1      -1.906   1.099   0.000  0.00  0.00    +0.000 A 
ATOM      4  O   UNL     1      -0.477   1.099   0.000  0.00  0.00    +0.000 OA
ATOM      5  C   UNL     1      -1.191  -0.139   0.000  0.00  0.00    +0.000 A 
ATOM      6  C   UNL     1      -1.191   0.686   0.000  0.00  0.00    +0.000 A 
ATOM      7  C   UNL     1       0.237   0.686   0.000  0.00  0.00    +0.000 A 
ATOM      8  O   UNL     1      -3.335   1.099   0.000  0.00  0.00    +0.000 OA
ATOM      9  O   UNL     1       0.952   1.099   0.000  0.00  0.00    +0.000 OA
ATOM     10  C   UNL     1      -2.620  -0.139   0.000  0.00  0.00    +0.000 A 
ATOM     11  C   UNL     1       0.237  -0.139   0.000  0.00  0.00    +0.000 A 
ATOM     12  C   UNL     1      -2.620   0.686   0.000  0.00  0.00    +0.000 A 
ENDROOT
BRANCH  11  14
ATOM     13  O   UNL     1       0.952  -1.376   0.000  0.00  0.00    +0.000 OA
ATOM     14  C   UNL     1       0.952  -0.551   0.000  0.00  0.00    +0.000 C 
BRANCH  14  15
ATOM     15  O   UNL     1       1.667  -0.139   0.000  0.00  0.00    +0.000 OA
BRANCH  15  17
ATOM     16  C   UNL     1       3.095  -0.139   0.000  0.00  0.00    +0.000 C 
ATOM     17  C   UNL     1       2.381  -0.551   0.000  0.00  0.00    +0.000 C 
ENDBRANCH  15  17
ENDBRANCH  14  15
ENDBRANCH  11  14
TORSDOF 3
