REMARK  Name = ZAF
REMARK  12 active torsions:
REMARK  status: ('A' for Active; 'I' for Inactive)
REMARK    1  A    between atoms: C_1  and  C_5
REMARK    2  A    between atoms: C_4  and  C_5
REMARK    3  A    between atoms: C_4  and  C_6
REMARK    4  A    between atoms: C_5  and  O_12
REMARK    5  A    between atoms: O_12  and  P_13
REMARK    6  A    between atoms: P_13  and  C_16
REMARK    7  A    between atoms: C_16  and  N_18
REMARK    8  A    between atoms: C_19  and  C_21
REMARK    9  A    between atoms: C_21  and  N_23
REMARK   10  A    between atoms: C_24  and  O_26
REMARK   11  A    between atoms: O_26  and  C_27
REMARK   12  A    between atoms: C_27  and  C_28
REMARK                            x       y       z     vdW  Elec       q    Type
REMARK                         _______ _______ _______ _____ _____    ______ ____
ROOT
ATOM      1  C   UNL     1      -0.701  -0.091   0.000  0.00  0.00    +0.000 C 
ATOM      2  C   UNL     1      -0.701  -0.916   0.000  0.00  0.00    +0.000 C 
ENDROOT
BRANCH   1   3
ATOM      3  N   UNL     1       0.013   0.321   0.000  0.00  0.00    +0.000 NA
ATOM      4  C   UNL     1       0.728  -0.091   0.000  0.00  0.00    +0.000 C 
ATOM      5  O   UNL     1       0.728  -0.916   0.000  0.00  0.00    +0.000 OA
BRANCH   4   6
ATOM      6  C   UNL     1       1.442   0.321   0.000  0.00  0.00    +0.000 C 
ATOM      7  C   UNL     1       1.442   1.146   0.000  0.00  0.00    +0.000 C 
BRANCH   6   8
ATOM      8  N   UNL     1       2.157  -0.091   0.000  0.00  0.00    +0.000 NA
ATOM      9  C   UNL     1       2.871   0.321   0.000  0.00  0.00    +0.000 C 
ATOM     10  O   UNL     1       2.871   1.146   0.000  0.00  0.00    +0.000 OA
BRANCH   9  11
ATOM     11  O   UNL     1       3.586  -0.091   0.000  0.00  0.00    +0.000 OA
BRANCH  11  12
ATOM     12  C   UNL     1       4.300   0.321   0.000  0.00  0.00    +0.000 C 
BRANCH  12  13
ATOM     13  C   UNL     1       5.014  -0.091   0.000  0.00  0.00    +0.000 A 
ATOM     14  C   UNL     1       5.729   0.321   0.000  0.00  0.00    +0.000 A 
ATOM     15  C   UNL     1       6.443  -0.091   0.000  0.00  0.00    +0.000 A 
ATOM     16  C   UNL     1       6.443  -0.916   0.000  0.00  0.00    +0.000 A 
ATOM     17  C   UNL     1       5.729  -1.329   0.000  0.00  0.00    +0.000 A 
ATOM     18  C   UNL     1       5.014  -0.916   0.000  0.00  0.00    +0.000 A 
ENDBRANCH  12  13
ENDBRANCH  11  12
ENDBRANCH   9  11
ENDBRANCH   6   8
ENDBRANCH   4   6
ENDBRANCH   1   3
BRANCH   1  19
ATOM     19  P   UNL     1      -1.416   0.321   0.000  0.00  0.00    +0.000 P 
ATOM     20  O   UNL     1      -1.828  -0.393   0.000  0.00  0.00    +0.000 OA
ATOM     21  O   UNL     1      -1.003   1.036   0.000  0.00  0.00    +0.000 OA
BRANCH  19  22
ATOM     22  O   UNL     1      -2.130   0.734   0.000  0.00  0.00    +0.000 OA
BRANCH  22  23
ATOM     23  C   UNL     1      -2.845   0.321   0.000  0.00  0.00    +0.000 C 
BRANCH  23  24
ATOM     24  C   UNL     1      -2.845  -0.504   0.000  0.00  0.00    +0.000 C 
ATOM     25  O   UNL     1      -2.130  -0.916   0.000  0.00  0.00    +0.000 OA
ATOM     26  O   UNL     1      -3.559  -0.916   0.000  0.00  0.00    +0.000 OA
ENDBRANCH  23  24
BRANCH  23  27
ATOM     27  C   UNL     1      -3.559   0.734   0.000  0.00  0.00    +0.000 C 
BRANCH  27  28
ATOM     28  C   UNL     1      -4.274   0.321   0.000  0.00  0.00    +0.000 A 
ATOM     29  C   UNL     1      -4.274  -0.504   0.000  0.00  0.00    +0.000 A 
ATOM     30  C   UNL     1      -4.988  -0.916   0.000  0.00  0.00    +0.000 A 
ATOM     31  C   UNL     1      -5.703  -0.504   0.000  0.00  0.00    +0.000 A 
ATOM     32  C   UNL     1      -5.703   0.321   0.000  0.00  0.00    +0.000 A 
ATOM     33  C   UNL     1      -4.988   0.734   0.000  0.00  0.00    +0.000 A 
ENDBRANCH  27  28
ENDBRANCH  23  27
ENDBRANCH  22  23
ENDBRANCH  19  22
ENDBRANCH   1  19
TORSDOF 12
