REMARK  Name = ZAH
REMARK  6 active torsions:
REMARK  status: ('A' for Active; 'I' for Inactive)
REMARK    1  A    between atoms: C_1  and  CA_4
REMARK    2  A    between atoms: C_9  and  CA_11
REMARK    3  A    between atoms: CA_11  and  N_13
REMARK    4  A    between atoms: C_14  and  O_16
REMARK    5  A    between atoms: O_16  and  C_17
REMARK    6  A    between atoms: C_17  and  C_18
REMARK                            x       y       z     vdW  Elec       q    Type
REMARK                         _______ _______ _______ _____ _____    ______ ____
ROOT
ATOM      1  CA  ALA A   1      -0.718   0.169   0.000  0.00  0.00    +0.000 C 
ATOM      2  CB  ALA A   1      -0.718   0.994   0.000  0.00  0.00    +0.000 C 
ENDROOT
BRANCH   1   8
ATOM      3  CA  ALA A   1      -2.901  -0.166   0.000  0.00  0.00    +0.000 C 
ATOM      4  CB  ALA A   1      -3.453   0.447   0.000  0.00  0.00    +0.000 C 
ATOM      5  CG  ALA A   1      -3.040   1.161   0.000  0.00  0.00    +0.000 C 
ATOM      6  CD  ALA A   1      -2.233   0.990   0.000  0.00  0.00    +0.000 C 
ATOM      7  N   ALA A   1      -2.147   0.169   0.000  0.00  0.00    +0.000 N 
ATOM      8  C   ALA A   1      -1.432  -0.243   0.000  0.00  0.00    +0.000 C 
ATOM      9  O   ALA A   1      -1.432  -1.068   0.000  0.00  0.00    +0.000 OA
BRANCH   3  10
ATOM     10  C   ALA A   1      -3.072  -0.973   0.000  0.00  0.00    +0.000 C 
ATOM     11  O   ALA A   1      -3.857  -1.228   0.000  0.00  0.00    +0.000 OA
ATOM     12  OXT ALA A   1      -2.459  -1.525   0.000  0.00  0.00    +0.000 OA
ENDBRANCH   3  10
ENDBRANCH   1   8
BRANCH   1  13
ATOM     13  N   ALA A   1      -0.003  -0.243   0.000  0.00  0.00    +0.000 NA
ATOM     14  C   UNK A   0       0.711   0.169   0.000  0.00  0.00    +0.000 C 
ATOM     15  O   UNK A   0       0.711   0.994   0.000  0.00  0.00    +0.000 OA
BRANCH  14  16
ATOM     16  O   UNK A   0       1.426  -0.243   0.000  0.00  0.00    +0.000 OA
BRANCH  16  17
ATOM     17  C   UNK A   0       2.140   0.169   0.000  0.00  0.00    +0.000 C 
BRANCH  17  18
ATOM     18  C   UNK A   0       2.854  -0.243   0.000  0.00  0.00    +0.000 A 
ATOM     19  C   UNK A   0       3.569   0.169   0.000  0.00  0.00    +0.000 A 
ATOM     20  C   UNK A   0       4.284  -0.243   0.000  0.00  0.00    +0.000 A 
ATOM     21  C   UNK A   0       4.284  -1.068   0.000  0.00  0.00    +0.000 A 
ATOM     22  C   UNK A   0       3.569  -1.481   0.000  0.00  0.00    +0.000 A 
ATOM     23  C   UNK A   0       2.854  -1.068   0.000  0.00  0.00    +0.000 A 
ENDBRANCH  17  18
ENDBRANCH  16  17
ENDBRANCH  14  16
ENDBRANCH   1  13
TORSDOF 6
