REMARK  Name = ZAM
REMARK  5 active torsions:
REMARK  status: ('A' for Active; 'I' for Inactive)
REMARK    1  A    between atoms: C_1  and  C_7
REMARK    2  A    between atoms: C_1  and  N_13
REMARK    3  A    between atoms: C_3  and  C_9
REMARK    4  A    between atoms: C_4  and  N_17
REMARK    5  A    between atoms: C_4  and  C_19
REMARK                            x       y       z     vdW  Elec       q    Type
REMARK                         _______ _______ _______ _____ _____    ______ ____
ROOT
ATOM      1  C   UNL     1      -1.053  -1.180   0.000  0.00  0.00    +0.000 C 
ATOM      2  C   UNL     1       0.185  -0.466   0.000  0.00  0.00    +0.000 C 
ATOM      3  N   UNL     1      -0.228  -1.180   0.000  0.00  0.00    +0.000 N 
ATOM      4  O   UNL     1      -1.465  -1.894   0.000  0.00  0.00    +0.000 OA
ENDROOT
BRANCH   1   8
ATOM      5  C   UNL     1      -2.290   0.964   0.000  0.00  0.00    +0.000 A 
ATOM      6  C   UNL     1      -1.465   0.964   0.000  0.00  0.00    +0.000 A 
ATOM      7  C   UNL     1      -1.053   0.249   0.000  0.00  0.00    +0.000 A 
ATOM      8  C   UNL     1      -1.465  -0.466   0.000  0.00  0.00    +0.000 A 
ATOM      9  C   UNL     1      -2.290  -0.466   0.000  0.00  0.00    +0.000 A 
ATOM     10  C   UNL     1      -2.703   0.249   0.000  0.00  0.00    +0.000 A 
ATOM     11  N   UNL     1      -2.703   1.678   0.000  0.00  0.00    +0.000 NA
BRANCH   6  12
ATOM     12  C   UNL     1      -1.053   1.678   0.000  0.00  0.00    +0.000 C 
BRANCH  12  14
ATOM     13  C   UNL     1      -1.053   3.107   0.000  0.00  0.00    +0.000 C 
ATOM     14  N   UNL     1      -1.465   2.392   0.000  0.00  0.00    +0.000 N 
ATOM     15  C   UNL     1      -2.290   2.392   0.000  0.00  0.00    +0.000 C 
ATOM     16  O   UNL     1      -1.465   3.821   0.000  0.00  0.00    +0.000 OA
ATOM     17  C   UNL     1      -0.228   3.107   0.000  0.00  0.00    +0.000 C 
ENDBRANCH  12  14
ENDBRANCH   6  12
ENDBRANCH   1   8
BRANCH   3  18
ATOM     18  C   UNL     1       0.185  -1.894   0.000  0.00  0.00    +0.000 C 
BRANCH  18  19
ATOM     19  C   UNL     1       1.010  -1.894   0.000  0.00  0.00    +0.000 A 
ATOM     20  C   UNL     1       1.495  -2.562   0.000  0.00  0.00    +0.000 A 
ATOM     21  C   UNL     1       2.279  -2.307   0.000  0.00  0.00    +0.000 A 
ATOM     22  C   UNL     1       2.279  -1.482   0.000  0.00  0.00    +0.000 A 
ATOM     23  N   UNL     1       1.495  -1.227   0.000  0.00  0.00    +0.000 N 
ATOM     24  C   UNL     1       1.240  -0.442   0.000  0.00  0.00    +0.000 C 
ATOM     25  C   UNL     1       2.994  -2.719   0.000  0.00  0.00    +0.000 A 
ATOM     26  C   UNL     1       3.708  -2.307   0.000  0.00  0.00    +0.000 A 
ATOM     27  C   UNL     1       2.994  -1.069   0.000  0.00  0.00    +0.000 A 
ATOM     28  C   UNL     1       3.708  -1.482   0.000  0.00  0.00    +0.000 A 
ENDBRANCH  18  19
ENDBRANCH   3  18
TORSDOF 5
