REMARK  Name = ZAP
REMARK  7 active torsions:
REMARK  status: ('A' for Active; 'I' for Inactive)
REMARK    1  A    between atoms: C_1  and  C_2
REMARK    2  A    between atoms: C_5  and  C_8
REMARK    3  A    between atoms: C_8  and  N_19
REMARK    4  A    between atoms: C_8  and  P_25
REMARK    5  A    between atoms: C_9  and  O_21
REMARK    6  A    between atoms: C_10  and  C_11
REMARK    7  A    between atoms: C_10  and  O_21
REMARK                            x       y       z     vdW  Elec       q    Type
REMARK                         _______ _______ _______ _____ _____    ______ ____
ROOT
ATOM      1  C   UNL     1       1.023  -0.113   0.000  0.00  0.00    +0.000 C 
ENDROOT
BRANCH   1   5
ATOM      2  C   UNL     1       2.261   2.031   0.000  0.00  0.00    +0.000 A 
ATOM      3  C   UNL     1       2.673   1.316   0.000  0.00  0.00    +0.000 A 
ATOM      4  C   UNL     1       2.261   0.602   0.000  0.00  0.00    +0.000 A 
ATOM      5  C   UNL     1       1.436   0.602   0.000  0.00  0.00    +0.000 A 
ATOM      6  C   UNL     1       1.023   1.316   0.000  0.00  0.00    +0.000 A 
ATOM      7  C   UNL     1       1.436   2.031   0.000  0.00  0.00    +0.000 A 
BRANCH   2   8
ATOM      8  C   UNL     1       2.673   2.745   0.000  0.00  0.00    +0.000 C 
ATOM      9  N   UNL     1       2.261   3.460   0.000  0.00  0.00    +0.000 NA
ATOM     10  N   UNL     1       3.498   2.745   0.000  0.00  0.00    +0.000 NA
ENDBRANCH   2   8
ENDBRANCH   1   5
BRANCH   1  14
ATOM     11  O   UNL     1       0.721  -1.240   0.000  0.00  0.00    +0.000 OA
ATOM     12  O   UNL     1       2.150  -0.415   0.000  0.00  0.00    +0.000 OA
ATOM     13  O   UNL     1       1.848  -1.542   0.000  0.00  0.00    +0.000 OA
ATOM     14  P   UNL     1       1.436  -0.827   0.000  0.00  0.00    +0.000 P 
ENDBRANCH   1  14
BRANCH   1  16
ATOM     15  C   UNL     1      -0.214  -0.827   0.000  0.00  0.00    +0.000 C 
ATOM     16  N   UNL     1       0.198  -0.113   0.000  0.00  0.00    +0.000 NA
ATOM     17  O   UNL     1       0.198  -1.542   0.000  0.00  0.00    +0.000 OA
BRANCH  15  18
ATOM     18  O   UNL     1      -1.039  -0.827   0.000  0.00  0.00    +0.000 OA
BRANCH  18  19
ATOM     19  C   UNL     1      -1.452  -1.542   0.000  0.00  0.00    +0.000 C 
BRANCH  19  20
ATOM     20  C   UNL     1      -2.277  -1.542   0.000  0.00  0.00    +0.000 A 
ATOM     21  C   UNL     1      -2.689  -2.256   0.000  0.00  0.00    +0.000 A 
ATOM     22  C   UNL     1      -3.514  -2.256   0.000  0.00  0.00    +0.000 A 
ATOM     23  C   UNL     1      -3.927  -1.542   0.000  0.00  0.00    +0.000 A 
ATOM     24  C   UNL     1      -3.514  -0.827   0.000  0.00  0.00    +0.000 A 
ATOM     25  C   UNL     1      -2.689  -0.827   0.000  0.00  0.00    +0.000 A 
ENDBRANCH  19  20
ENDBRANCH  18  19
ENDBRANCH  15  18
ENDBRANCH   1  16
TORSDOF 7
