REMARK  Name = ZEC
REMARK  1 active torsions:
REMARK  status: ('A' for Active; 'I' for Inactive)
REMARK    1  A    between atoms: C_6  and  S_7
REMARK                            x       y       z     vdW  Elec       q    Type
REMARK                         _______ _______ _______ _____ _____    ______ ____
ROOT
ATOM      1  O   UNL     1       2.815  -0.524   0.000  0.00  0.00    +0.000 OA
ATOM      2  C   UNL     1       2.100  -0.112   0.000  0.00  0.00    +0.000 A 
ATOM      3  C   UNL     1       1.386  -0.524   0.000  0.00  0.00    +0.000 A 
ATOM      4  C   UNL     1       0.671  -0.112   0.000  0.00  0.00    +0.000 A 
ATOM      5  S   UNL     1      -0.113  -0.367   0.000  0.00  0.00    +0.000 S 
ATOM      6  C   UNL     1      -0.598   0.301   0.000  0.00  0.00    +0.000 A 
ATOM      7  N   UNL     1      -0.113   0.968   0.000  0.00  0.00    +0.000 NA
ATOM      8  C   UNL     1       0.671   0.713   0.000  0.00  0.00    +0.000 A 
ATOM      9  C   UNL     1       1.386   1.126   0.000  0.00  0.00    +0.000 A 
ATOM     10  C   UNL     1       2.100   0.713   0.000  0.00  0.00    +0.000 A 
ENDROOT
BRANCH   6  11
ATOM     11  S   UNL     1      -1.423   0.301   0.000  0.00  0.00    +0.000 S 
ATOM     12  N   UNL     1      -2.248   0.301   0.000  0.00  0.00    +0.000 NA
ATOM     13  O   UNL     1      -1.423   1.126   0.000  0.00  0.00    +0.000 OA
ATOM     14  O   UNL     1      -1.423  -0.524   0.000  0.00  0.00    +0.000 OA
ENDBRANCH   6  11
TORSDOF 1
