REMARK  Name = ZES
REMARK  4 active torsions:
REMARK  status: ('A' for Active; 'I' for Inactive)
REMARK    1  A    between atoms: N_8  and  C_11
REMARK    2  A    between atoms: N_10  and  C_19
REMARK    3  A    between atoms: C_11  and  C_12
REMARK    4  A    between atoms: C_19  and  C_20
REMARK                            x       y       z     vdW  Elec       q    Type
REMARK                         _______ _______ _______ _____ _____    ______ ____
ROOT
ATOM      1  C   UNL     1      -2.168  -0.152   0.000  0.00  0.00    +0.000 A 
ATOM      2  C   UNL     1      -1.454  -0.565   0.000  0.00  0.00    +0.000 A 
ATOM      3  C   UNL     1      -0.739  -0.152   0.000  0.00  0.00    +0.000 A 
ATOM      4  C   UNL     1      -0.739   0.673   0.000  0.00  0.00    +0.000 A 
ATOM      5  C   UNL     1      -1.454   1.085   0.000  0.00  0.00    +0.000 A 
ATOM      6  C   UNL     1      -2.168   0.673   0.000  0.00  0.00    +0.000 A 
ATOM      7  C   UNL     1      -0.025  -0.565   0.000  0.00  0.00    +0.000 A 
ATOM      8  N   UNL     1       0.690  -0.152   0.000  0.00  0.00    +0.000 N 
ATOM      9  C   UNL     1       0.690   0.673   0.000  0.00  0.00    +0.000 A 
ATOM     10  N   UNL     1      -0.025   1.085   0.000  0.00  0.00    +0.000 N 
ATOM     11 CL   UNL     1      -2.883   1.085   0.000  0.00  0.00    +0.000 Cl
ATOM     12  O   UNL     1       1.404   1.085   0.000  0.00  0.00    +0.000 OA
ATOM     13  O   UNL     1      -0.025  -1.390   0.000  0.00  0.00    +0.000 OA
ENDROOT
BRANCH   8  14
ATOM     14  C   UNL     1       1.404  -0.565   0.000  0.00  0.00    +0.000 C 
BRANCH  14  15
ATOM     15  C   UNL     1       1.404  -1.390   0.000  0.00  0.00    +0.000 A 
ATOM     16  C   UNL     1       2.119  -1.802   0.000  0.00  0.00    +0.000 A 
ATOM     17  C   UNL     1       2.119  -2.627   0.000  0.00  0.00    +0.000 A 
ATOM     18  C   UNL     1       1.404  -3.040   0.000  0.00  0.00    +0.000 A 
ATOM     19  C   UNL     1       0.690  -2.627   0.000  0.00  0.00    +0.000 A 
ATOM     20  C   UNL     1       0.690  -1.802   0.000  0.00  0.00    +0.000 A 
ATOM     21  F   UNL     1       2.833  -1.390   0.000  0.00  0.00    +0.000 F 
ATOM     22 BR   UNL     1       1.404  -3.865   0.000  0.00  0.00    +0.000 Br
ENDBRANCH  14  15
ENDBRANCH   8  14
BRANCH  10  23
ATOM     23  C   UNL     1      -0.025   1.910   0.000  0.00  0.00    +0.000 C 
BRANCH  23  24
ATOM     24  C   UNL     1      -0.739   2.323   0.000  0.00  0.00    +0.000 C 
ATOM     25  O   UNL     1      -1.454   1.910   0.000  0.00  0.00    +0.000 OA
ATOM     26  O   UNL     1      -0.739   3.148   0.000  0.00  0.00    +0.000 OA
ENDBRANCH  23  24
ENDBRANCH  10  23
TORSDOF 4
