REMARK  Name = ZHZ
REMARK  3 active torsions:
REMARK  status: ('A' for Active; 'I' for Inactive)
REMARK    1  A    between atoms: C_2  and  C_4
REMARK    2  A    between atoms: C_4  and  C_5
REMARK    3  A    between atoms: C_8  and  O_9
REMARK                            x       y       z     vdW  Elec       q    Type
REMARK                         _______ _______ _______ _____ _____    ______ ____
ROOT
ATOM      1  C   UNL     1       1.620  -0.536   0.000  0.00  0.00    +0.000 A 
ATOM      2  C   UNL     1       1.620  -1.361   0.000  0.00  0.00    +0.000 A 
ATOM      3  C   UNL     1       0.906  -1.774   0.000  0.00  0.00    +0.000 A 
ATOM      4  C   UNL     1       0.191  -1.361   0.000  0.00  0.00    +0.000 A 
ATOM      5  C   UNL     1       0.191  -0.536   0.000  0.00  0.00    +0.000 A 
ATOM      6  C   UNL     1       0.906  -0.124   0.000  0.00  0.00    +0.000 A 
ENDROOT
BRANCH   4   7
ATOM      7  O   UNL     1      -0.523  -1.774   0.000  0.00  0.00    +0.000 OA
ATOM      8  C   UNL     1      -0.523  -2.599   0.000  0.00  0.00    +0.000 C 
ENDBRANCH   4   7
BRANCH   1   9
ATOM      9  C   UNL     1       2.334  -0.124   0.000  0.00  0.00    +0.000 C 
BRANCH   9  11
ATOM     10  O   UNL     1       3.049   1.113   0.000  0.00  0.00    +0.000 OA
ATOM     11  C   UNL     1       2.334   0.701   0.000  0.00  0.00    +0.000 C 
ATOM     12  N   UNL     1       1.620   1.113   0.000  0.00  0.00    +0.000 NA
ENDBRANCH   9  11
ENDBRANCH   1   9
TORSDOF 3
