REMARK  Name = ZMA
REMARK  4 active torsions:
REMARK  status: ('A' for Active; 'I' for Inactive)
REMARK    1  A    between atoms: C_7  and  C_8
REMARK    2  A    between atoms: C_8  and  C_9
REMARK    3  A    between atoms: C_9  and  N_10
REMARK    4  A    between atoms: C_20  and  C_21
REMARK                            x       y       z     vdW  Elec       q    Type
REMARK                         _______ _______ _______ _____ _____    ______ ____
ROOT
ATOM      1  N   UNL     1       0.212   0.882   0.000  0.00  0.00    +0.000 NA
ATOM      2  C   UNL     1      -0.503   0.470   0.000  0.00  0.00    +0.000 A 
ATOM      3  N   UNL     1      -1.217   0.882   0.000  0.00  0.00    +0.000 NA
ATOM      4  N   UNL     1      -0.503  -0.355   0.000  0.00  0.00    +0.000 NA
ATOM      5  C   UNL     1      -1.217  -0.768   0.000  0.00  0.00    +0.000 A 
ATOM      6  N   UNL     1      -1.217  -1.593   0.000  0.00  0.00    +0.000 NA
ATOM      7  N   UNL     1      -1.932  -0.355   0.000  0.00  0.00    +0.000 N 
ATOM      8  N   UNL     1      -2.716  -0.610   0.000  0.00  0.00    +0.000 NA
ATOM      9  C   UNL     1      -1.932   0.470   0.000  0.00  0.00    +0.000 A 
ATOM     10  N   UNL     1      -2.716   0.725   0.000  0.00  0.00    +0.000 NA
ATOM     11  C   UNL     1      -3.201   0.057   0.000  0.00  0.00    +0.000 A 
ENDROOT
BRANCH  11  12
ATOM     12  C   UNL     1      -4.026   0.057   0.000  0.00  0.00    +0.000 A 
ATOM     13  C   UNL     1      -4.511   0.725   0.000  0.00  0.00    +0.000 A 
ATOM     14  C   UNL     1      -5.296   0.470   0.000  0.00  0.00    +0.000 A 
ATOM     15  C   UNL     1      -5.296  -0.355   0.000  0.00  0.00    +0.000 A 
ATOM     16  O   UNL     1      -4.511  -0.610   0.000  0.00  0.00    +0.000 OA
ENDBRANCH  11  12
BRANCH   1  17
ATOM     17  C   UNL     1       0.926   0.470   0.000  0.00  0.00    +0.000 C 
BRANCH  17  18
ATOM     18  C   UNL     1       1.641   0.882   0.000  0.00  0.00    +0.000 C 
BRANCH  18  25
ATOM     19  C   UNL     1       3.070   0.882   0.000  0.00  0.00    +0.000 A 
ATOM     20  C   UNL     1       3.784   0.470   0.000  0.00  0.00    +0.000 A 
ATOM     21  C   UNL     1       3.784  -0.355   0.000  0.00  0.00    +0.000 A 
ATOM     22  O   UNL     1       4.498  -0.768   0.000  0.00  0.00    +0.000 OA
ATOM     23  C   UNL     1       3.070  -0.768   0.000  0.00  0.00    +0.000 A 
ATOM     24  C   UNL     1       2.355  -0.355   0.000  0.00  0.00    +0.000 A 
ATOM     25  C   UNL     1       2.355   0.470   0.000  0.00  0.00    +0.000 A 
ENDBRANCH  18  25
ENDBRANCH  17  18
ENDBRANCH   1  17
TORSDOF 4
