REMARK  Name = ZPR
REMARK  5 active torsions:
REMARK  status: ('A' for Active; 'I' for Inactive)
REMARK    1  A    between atoms: C_1  and  C_3
REMARK    2  A    between atoms: C_8  and  C_10
REMARK    3  A    between atoms: C_15  and  O_17
REMARK    4  A    between atoms: O_17  and  C_18
REMARK    5  A    between atoms: C_18  and  C_19
REMARK                            x       y       z     vdW  Elec       q    Type
REMARK                         _______ _______ _______ _____ _____    ______ ____
ROOT
ATOM      1  C   UNL     1       0.304  -0.810   0.000  0.00  0.00    +0.000 C 
ATOM      2  C   UNL     1       0.391  -1.631   0.000  0.00  0.00    +0.000 C 
ATOM      3  C   UNL     1      -0.363  -1.966   0.000  0.00  0.00    +0.000 C 
ATOM      4  C   UNL     1      -0.915  -1.353   0.000  0.00  0.00    +0.000 C 
ATOM      5  N   UNL     1      -0.503  -0.639   0.000  0.00  0.00    +0.000 N 
ATOM      6  C   UNL     1      -0.838   0.115   0.000  0.00  0.00    +0.000 C 
ATOM      7  O   UNL     1      -1.659   0.201   0.000  0.00  0.00    +0.000 OA
ENDROOT
BRANCH   1  13
ATOM      8  C   UNL     1       2.369  -0.028   0.000  0.00  0.00    +0.000 C 
ATOM      9  C   UNL     1       3.037  -0.513   0.000  0.00  0.00    +0.000 C 
ATOM     10  C   UNL     1       2.782  -1.298   0.000  0.00  0.00    +0.000 C 
ATOM     11  C   UNL     1       1.957  -1.298   0.000  0.00  0.00    +0.000 C 
ATOM     12  N   UNL     1       1.702  -0.513   0.000  0.00  0.00    +0.000 N 
ATOM     13  C   UNL     1       0.917  -0.258   0.000  0.00  0.00    +0.000 C 
ATOM     14  O   UNL     1       0.746   0.549   0.000  0.00  0.00    +0.000 OA
BRANCH   8  15
ATOM     15  C   UNL     1       2.369   0.797   0.000  0.00  0.00    +0.000 C 
ATOM     16  O   UNL     1       3.084   1.209   0.000  0.00  0.00    +0.000 OA
ENDBRANCH   8  15
ENDBRANCH   1  13
BRANCH   6  17
ATOM     17  O   UNL     1      -0.353   0.782   0.000  0.00  0.00    +0.000 OA
BRANCH  17  18
ATOM     18  C   UNL     1      -0.689   1.536   0.000  0.00  0.00    +0.000 C 
BRANCH  18  19
ATOM     19  C   UNL     1      -1.509   1.622   0.000  0.00  0.00    +0.000 A 
ATOM     20  C   UNL     1      -1.994   0.955   0.000  0.00  0.00    +0.000 A 
ATOM     21  C   UNL     1      -2.815   1.041   0.000  0.00  0.00    +0.000 A 
ATOM     22  C   UNL     1      -3.150   1.795   0.000  0.00  0.00    +0.000 A 
ATOM     23  C   UNL     1      -2.665   2.462   0.000  0.00  0.00    +0.000 A 
ATOM     24  C   UNL     1      -1.845   2.376   0.000  0.00  0.00    +0.000 A 
ENDBRANCH  18  19
ENDBRANCH  17  18
ENDBRANCH   6  17
TORSDOF 5
