REMARK  Name = ZTW
REMARK  1 active torsions:
REMARK  status: ('A' for Active; 'I' for Inactive)
REMARK    1  A    between atoms: C_8  and  C_9
REMARK                            x       y       z     vdW  Elec       q    Type
REMARK                         _______ _______ _______ _____ _____    ______ ____
ROOT
ATOM      1  C   UNL     1       1.699   0.843   0.000  0.00  0.00    +0.000 A 
ATOM      2  C   UNL     1       2.414   0.430   0.000  0.00  0.00    +0.000 A 
ATOM      3  C   UNL     1       2.414  -0.395   0.000  0.00  0.00    +0.000 A 
ATOM      4  O   UNL     1       3.128  -0.807   0.000  0.00  0.00    +0.000 OA
ATOM      5  C   UNL     1       1.699  -0.807   0.000  0.00  0.00    +0.000 A 
ATOM      6  C   UNL     1       0.985  -0.395   0.000  0.00  0.00    +0.000 A 
ATOM      7  S   UNL     1       0.200  -0.650   0.000  0.00  0.00    +0.000 S 
ATOM      8  C   UNL     1      -0.285   0.018   0.000  0.00  0.00    +0.000 A 
ATOM      9  C   UNL     1       0.985   0.430   0.000  0.00  0.00    +0.000 A 
ATOM     10  C   UNL     1       0.200   0.685   0.000  0.00  0.00    +0.000 A 
ENDROOT
BRANCH   8  11
ATOM     11  C   UNL     1      -1.110   0.018   0.000  0.00  0.00    +0.000 A 
ATOM     12  C   UNL     1      -1.522  -0.697   0.000  0.00  0.00    +0.000 A 
ATOM     13  C   UNL     1      -2.347  -0.697   0.000  0.00  0.00    +0.000 A 
ATOM     14  C   UNL     1      -2.760   0.018   0.000  0.00  0.00    +0.000 A 
ATOM     15  O   UNL     1      -3.585   0.018   0.000  0.00  0.00    +0.000 OA
ATOM     16  C   UNL     1      -2.347   0.732   0.000  0.00  0.00    +0.000 A 
ATOM     17  C   UNL     1      -1.522   0.732   0.000  0.00  0.00    +0.000 A 
ENDBRANCH   8  11
TORSDOF 1
