REMARK  Name = ZY6
REMARK  3 active torsions:
REMARK  status: ('A' for Active; 'I' for Inactive)
REMARK    1  A    between atoms: C_6  and  C_7
REMARK    2  A    between atoms: C_15  and  N_16
REMARK    3  A    between atoms: C_21  and  C_22
REMARK                            x       y       z     vdW  Elec       q    Type
REMARK                         _______ _______ _______ _____ _____    ______ ____
ROOT
ATOM      1  C   UNL     1       0.732  -1.249   0.000  0.00  0.00    +0.000 A 
ATOM      2  C   UNL     1       0.732  -2.074   0.000  0.00  0.00    +0.000 A 
ATOM      3  N   UNL     1       0.017  -2.487   0.000  0.00  0.00    +0.000 NA
ATOM      4  C   UNL     1      -0.698  -2.074   0.000  0.00  0.00    +0.000 A 
ATOM      5  N   UNL     1      -1.482  -2.329   0.000  0.00  0.00    +0.000 NA
ATOM      6  N   UNL     1      -1.967  -1.662   0.000  0.00  0.00    +0.000 NA
ATOM      7  C   UNL     1      -1.482  -0.994   0.000  0.00  0.00    +0.000 A 
ATOM      8  C   UNL     1      -0.698  -1.249   0.000  0.00  0.00    +0.000 A 
ATOM      9  C   UNL     1       0.017  -0.837   0.000  0.00  0.00    +0.000 A 
ENDROOT
BRANCH   1  15
ATOM     10  C   UNL     1       1.446  -0.012   0.000  0.00  0.00    +0.000 A 
ATOM     11  C   UNL     1       2.160   0.401   0.000  0.00  0.00    +0.000 A 
ATOM     12  C   UNL     1       2.875  -0.012   0.000  0.00  0.00    +0.000 A 
ATOM     13  C   UNL     1       2.875  -0.837   0.000  0.00  0.00    +0.000 A 
ATOM     14  C   UNL     1       2.160  -1.249   0.000  0.00  0.00    +0.000 A 
ATOM     15  C   UNL     1       1.446  -0.837   0.000  0.00  0.00    +0.000 A 
ENDBRANCH   1  15
BRANCH   9  16
ATOM     16  N   UNL     1       0.017  -0.012   0.000  0.00  0.00    +0.000 N 
ATOM     17  C   UNL     1      -0.698   0.401   0.000  0.00  0.00    +0.000 C 
ATOM     18  C   UNL     1       0.732   0.401   0.000  0.00  0.00    +0.000 C 
ATOM     19  C   UNL     1       0.732   1.226   0.000  0.00  0.00    +0.000 C 
ATOM     20  O   UNL     1       0.017   1.638   0.000  0.00  0.00    +0.000 OA
ATOM     21  C   UNL     1      -0.698   1.226   0.000  0.00  0.00    +0.000 C 
BRANCH  21  22
ATOM     22  C   UNL     1      -1.412   1.638   0.000  0.00  0.00    +0.000 C 
ATOM     23  N   UNL     1      -2.126   1.226   0.000  0.00  0.00    +0.000 NA
ENDBRANCH  21  22
ENDBRANCH   9  16
TORSDOF 3
