REMARK  Name = ZYQ
REMARK  0 active torsions:
REMARK  status: ('A' for Active; 'I' for Inactive)
REMARK                            x       y       z     vdW  Elec       q    Type
REMARK                         _______ _______ _______ _____ _____    ______ ____
ROOT
ATOM      1  C   UNL     1      -3.086  -0.906   0.000  0.00  0.00    +0.000 C 
ATOM      2  C   UNL     1      -2.261  -0.906   0.000  0.00  0.00    +0.000 C 
ATOM      3  O   UNL     1      -1.849  -1.621   0.000  0.00  0.00    +0.000 OA
ATOM      4  N   UNL     1      -1.849  -0.192   0.000  0.00  0.00    +0.000 NA
ATOM      5  C   UNL     1      -1.024  -0.192   0.000  0.00  0.00    +0.000 A 
ATOM      6  N   UNL     1      -0.539   0.476   0.000  0.00  0.00    +0.000 NA
ATOM      7  C   UNL     1       0.246   0.221   0.000  0.00  0.00    +0.000 A 
ATOM      8  C   UNL     1       0.891   0.735   0.000  0.00  0.00    +0.000 C 
ATOM      9  C   UNL     1       1.695   0.552   0.000  0.00  0.00    +0.000 C 
ATOM     10  C   UNL     1       2.053  -0.192   0.000  0.00  0.00    +0.000 C 
ATOM     11  N   UNL     1       1.695  -0.935   0.000  0.00  0.00    +0.000 NA
ATOM     12  C   UNL     1       0.891  -1.119   0.000  0.00  0.00    +0.000 C 
ATOM     13  O   UNL     1       0.707  -1.923   0.000  0.00  0.00    +0.000 OA
ATOM     14  C   UNL     1       0.246  -0.604   0.000  0.00  0.00    +0.000 A 
ATOM     15  S   UNL     1      -0.539  -0.859   0.000  0.00  0.00    +0.000 S 
ENDROOT
TORSDOF 0
