REMARK  Name = ZYR
REMARK  0 active torsions:
REMARK  status: ('A' for Active; 'I' for Inactive)
REMARK                            x       y       z     vdW  Elec       q    Type
REMARK                         _______ _______ _______ _____ _____    ______ ____
ROOT
ATOM      1  O   UNL     1      -0.741   1.252   0.000  0.00  0.00    +0.000 OA
ATOM      2  C   UNL     1      -0.996   0.468   0.000  0.00  0.00    +0.000 A 
ATOM      3  C   UNL     1      -0.444  -0.145   0.000  0.00  0.00    +0.000 A 
ATOM      4  C   UNL     1       0.381  -0.145   0.000  0.00  0.00    +0.000 A 
ATOM      5  C   UNL     1       0.933   0.468   0.000  0.00  0.00    +0.000 C 
ATOM      6  C   UNL     1       1.740   0.296   0.000  0.00  0.00    +0.000 C 
ATOM      7  C   UNL     1       1.995  -0.488   0.000  0.00  0.00    +0.000 C 
ATOM      8  C   UNL     1       1.443  -1.101   0.000  0.00  0.00    +0.000 C 
ATOM      9  C   UNL     1       0.636  -0.930   0.000  0.00  0.00    +0.000 A 
ATOM     10  S   UNL     1      -0.031  -1.415   0.000  0.00  0.00    +0.000 S 
ATOM     11  C   UNL     1      -0.699  -0.930   0.000  0.00  0.00    +0.000 A 
ATOM     12  N   UNL     1      -1.506  -1.101   0.000  0.00  0.00    +0.000 NA
ATOM     13  C   UNL     1      -2.058  -0.488   0.000  0.00  0.00    +0.000 A 
ATOM     14  N   UNL     1      -1.803   0.296   0.000  0.00  0.00    +0.000 NA
ENDROOT
TORSDOF 0
