REMARK  Name = ZYS
REMARK  3 active torsions:
REMARK  status: ('A' for Active; 'I' for Inactive)
REMARK    1  A    between atoms: C_2  and  N_5
REMARK    2  A    between atoms: C_11  and  C_12
REMARK    3  A    between atoms: C_12  and  C_14
REMARK                            x       y       z     vdW  Elec       q    Type
REMARK                         _______ _______ _______ _____ _____    ______ ____
ROOT
ATOM      1  N   UNL     1      -0.037   1.686   0.000  0.00  0.00    +0.000 NA
ATOM      2  C   UNL     1      -0.037   0.861   0.000  0.00  0.00    +0.000 A 
ATOM      3  S   UNL     1       0.631   0.376   0.000  0.00  0.00    +0.000 S 
ATOM      4  N   UNL     1      -0.704   0.376   0.000  0.00  0.00    +0.000 NA
ATOM      5  C   UNL     1      -0.449  -0.408   0.000  0.00  0.00    +0.000 A 
ATOM      6  N   UNL     1      -0.934  -1.076   0.000  0.00  0.00    +0.000 NA
ATOM      7  C   UNL     1       0.376  -0.408   0.000  0.00  0.00    +0.000 A 
ENDROOT
BRANCH   1   9
ATOM      8  C   UNL     1      -1.466   2.511   0.000  0.00  0.00    +0.000 C 
ATOM      9  C   UNL     1      -0.751   2.099   0.000  0.00  0.00    +0.000 C 
ATOM     10  C   UNL     1      -1.164   1.384   0.000  0.00  0.00    +0.000 C 
ATOM     11  C   UNL     1      -0.339   2.813   0.000  0.00  0.00    +0.000 C 
ENDBRANCH   1   9
BRANCH   7  12
ATOM     12  C   UNL     1       0.861  -1.076   0.000  0.00  0.00    +0.000 C 
ATOM     13  O   UNL     1       1.681  -0.990   0.000  0.00  0.00    +0.000 OA
BRANCH  12  14
ATOM     14  C   UNL     1       0.525  -1.829   0.000  0.00  0.00    +0.000 A 
ATOM     15  C   UNL     1       1.010  -2.497   0.000  0.00  0.00    +0.000 A 
ATOM     16  C   UNL     1       0.674  -3.251   0.000  0.00  0.00    +0.000 A 
ATOM     17  C   UNL     1      -0.146  -3.337   0.000  0.00  0.00    +0.000 A 
ATOM     18  C   UNL     1      -0.631  -2.669   0.000  0.00  0.00    +0.000 A 
ATOM     19  C   UNL     1      -0.295  -1.916   0.000  0.00  0.00    +0.000 A 
ENDBRANCH  12  14
ENDBRANCH   7  12
TORSDOF 3
