REMARK  Name = ZYT
REMARK  3 active torsions:
REMARK  status: ('A' for Active; 'I' for Inactive)
REMARK    1  A    between atoms: S_2  and  C_3
REMARK    2  A    between atoms: C_8  and  C_9
REMARK    3  A    between atoms: C_9  and  C_10
REMARK                            x       y       z     vdW  Elec       q    Type
REMARK                         _______ _______ _______ _____ _____    ______ ____
ROOT
ATOM      1  C   UNL     1      -0.090   1.688   0.000  0.00  0.00    +0.000 A 
ATOM      2  N   UNL     1       0.578   1.203   0.000  0.00  0.00    +0.000 NA
ATOM      3  N   UNL     1      -0.757   1.203   0.000  0.00  0.00    +0.000 NA
ATOM      4  C   UNL     1      -0.502   0.419   0.000  0.00  0.00    +0.000 A 
ATOM      5  O   UNL     1      -0.987  -0.249   0.000  0.00  0.00    +0.000 OA
ATOM      6  C   UNL     1       0.323   0.419   0.000  0.00  0.00    +0.000 A 
ENDROOT
BRANCH   1   8
ATOM      7  C   UNL     1      -0.804   2.926   0.000  0.00  0.00    +0.000 C 
ATOM      8  S   UNL     1      -0.090   2.513   0.000  0.00  0.00    +0.000 S 
ENDBRANCH   1   8
BRANCH   6   9
ATOM      9  C   UNL     1       0.807  -0.249   0.000  0.00  0.00    +0.000 C 
BRANCH   9  10
ATOM     10  C   UNL     1       0.472  -1.002   0.000  0.00  0.00    +0.000 A 
ATOM     11  C   UNL     1       0.884  -1.717   0.000  0.00  0.00    +0.000 A 
ATOM     12  C   UNL     1       0.332  -2.330   0.000  0.00  0.00    +0.000 A 
ATOM     13  C   UNL     1      -0.421  -1.994   0.000  0.00  0.00    +0.000 A 
ATOM     14  S   UNL     1      -0.335  -1.174   0.000  0.00  0.00    +0.000 S 
ENDBRANCH   9  10
ENDBRANCH   6   9
TORSDOF 3
