REMARK  Name = ZYU
REMARK  1 active torsions:
REMARK  status: ('A' for Active; 'I' for Inactive)
REMARK    1  A    between atoms: C_6  and  N_15
REMARK                            x       y       z     vdW  Elec       q    Type
REMARK                         _______ _______ _______ _____ _____    ______ ____
ROOT
ATOM      1  C   UNL     1       0.106  -0.399   0.000  0.00  0.00    +0.000 A 
ATOM      2  N   UNL     1       0.820  -0.811   0.000  0.00  0.00    +0.000 NA
ATOM      3  C   UNL     1       0.820  -1.636   0.000  0.00  0.00    +0.000 A 
ATOM      4  N   UNL     1       0.106  -2.049   0.000  0.00  0.00    +0.000 NA
ATOM      5  C   UNL     1      -0.609  -1.636   0.000  0.00  0.00    +0.000 A 
ATOM      6  C   UNL     1      -0.609  -0.811   0.000  0.00  0.00    +0.000 A 
ATOM      7  N   UNL     1      -1.393  -0.556   0.000  0.00  0.00    +0.000 NA
ATOM      8  C   UNL     1      -1.879  -1.224   0.000  0.00  0.00    +0.000 A 
ATOM      9  N   UNL     1      -1.393  -1.891   0.000  0.00  0.00    +0.000 NA
ENDROOT
BRANCH   1  15
ATOM     10  C   UNL     1      -0.609   0.839   0.000  0.00  0.00    +0.000 C 
ATOM     11  C   UNL     1      -0.609   1.664   0.000  0.00  0.00    +0.000 C 
ATOM     12  O   UNL     1       0.106   2.076   0.000  0.00  0.00    +0.000 OA
ATOM     13  C   UNL     1       0.820   1.664   0.000  0.00  0.00    +0.000 C 
ATOM     14  C   UNL     1       0.820   0.839   0.000  0.00  0.00    +0.000 C 
ATOM     15  N   UNL     1       0.106   0.426   0.000  0.00  0.00    +0.000 N 
ENDBRANCH   1  15
TORSDOF 1
