REMARK  Name = ZYX
REMARK  3 active torsions:
REMARK  status: ('A' for Active; 'I' for Inactive)
REMARK    1  A    between atoms: C_1  and  S_7
REMARK    2  A    between atoms: C_4  and  C_11
REMARK    3  A    between atoms: C_11  and  C_12
REMARK                            x       y       z     vdW  Elec       q    Type
REMARK                         _______ _______ _______ _____ _____    ______ ____
ROOT
ATOM      1  C   UNL     1       1.952  -0.272   0.000  0.00  0.00    +0.000 A 
ATOM      2  C   UNL     1       1.238   0.141   0.000  0.00  0.00    +0.000 A 
ATOM      3  C   UNL     1       0.523  -0.272   0.000  0.00  0.00    +0.000 A 
ATOM      4  C   UNL     1       0.523  -1.097   0.000  0.00  0.00    +0.000 A 
ATOM      5  C   UNL     1       1.238  -1.509   0.000  0.00  0.00    +0.000 A 
ATOM      6  C   UNL     1       1.952  -1.097   0.000  0.00  0.00    +0.000 A 
ENDROOT
BRANCH   1   7
ATOM      7  S   UNL     1       2.666   0.141   0.000  0.00  0.00    +0.000 S 
ATOM      8  O   UNL     1       3.381   0.553   0.000  0.00  0.00    +0.000 OA
ATOM      9  O   UNL     1       2.254   0.855   0.000  0.00  0.00    +0.000 OA
ATOM     10  N   UNL     1       3.079  -0.574   0.000  0.00  0.00    +0.000 NA
ENDBRANCH   1   7
BRANCH   4  11
ATOM     11  C   UNL     1      -0.192  -1.509   0.000  0.00  0.00    +0.000 C 
BRANCH  11  12
ATOM     12  C   UNL     1      -0.906  -1.097   0.000  0.00  0.00    +0.000 C 
ATOM     13  N   UNL     1      -1.620  -1.509   0.000  0.00  0.00    +0.000 NA
ENDBRANCH  11  12
ENDBRANCH   4  11
TORSDOF 3
