REMARK  Name = ZYZ
REMARK  9 active torsions:
REMARK  status: ('A' for Active; 'I' for Inactive)
REMARK    1  A    between atoms: SE_1  and  C_2
REMARK    2  A    between atoms: C_2  and  C_4
REMARK    3  A    between atoms: N_3  and  C_15
REMARK    4  A    between atoms: O_8  and  C_16
REMARK    5  A    between atoms: C_9  and  C_14
REMARK    6  A    between atoms: O_12  and  C_17
REMARK    7  A    between atoms: O_12  and  C_19
REMARK    8  A    between atoms: C_14  and  C_15
REMARK    9  A    between atoms: C_15  and  C_16
REMARK                            x       y       z     vdW  Elec       q    Type
REMARK                         _______ _______ _______ _____ _____    ______ ____
ROOT
ATOM      1  C   UNL     1       1.062   0.232   0.000  0.00  0.00    +0.000 C 
ENDROOT
BRANCH   1   2
ATOM      2  N   UNL     1       1.887   0.232   0.000  0.00  0.00    +0.000 NA
ATOM      3  O   UNL     1       1.887  -1.197   0.000  0.00  0.00    +0.000 OA
ATOM      4  C   UNL     1       2.299  -0.483   0.000  0.00  0.00    +0.000 C 
BRANCH   4   5
ATOM      5  O   UNL     1       3.124  -0.483   0.000  0.00  0.00    +0.000 OA
BRANCH   5   6
ATOM      6  C   UNL     1       3.537  -1.197   0.000  0.00  0.00    +0.000 C 
ATOM      7  C   UNL     1       3.949  -1.911   0.000  0.00  0.00    +0.000 C 
ATOM      8  C   UNL     1       4.251  -0.784   0.000  0.00  0.00    +0.000 C 
ATOM      9  C   UNL     1       2.822  -1.609   0.000  0.00  0.00    +0.000 C 
ENDBRANCH   5   6
ENDBRANCH   4   5
ENDBRANCH   1   2
BRANCH   1  11
ATOM     10  O   UNL     1      -0.176  -0.483   0.000  0.00  0.00    +0.000 OA
ATOM     11  C   UNL     1       0.649  -0.483   0.000  0.00  0.00    +0.000 C 
BRANCH  11  12
ATOM     12  O   UNL     1       1.062  -1.197   0.000  0.00  0.00    +0.000 OA
ATOM     13  C   UNL     1       0.649  -1.911   0.000  0.00  0.00    +0.000 C 
ENDBRANCH  11  12
ENDBRANCH   1  11
BRANCH   1  14
ATOM     14  C   UNL     1       0.649   0.946   0.000  0.00  0.00    +0.000 C 
BRANCH  14  18
ATOM     15  C   UNL     1      -1.826   0.946   0.000  0.00  0.00    +0.000 A 
ATOM     16  C   UNL     1      -1.413   1.661   0.000  0.00  0.00    +0.000 A 
ATOM     17  C   UNL     1      -0.588   1.661   0.000  0.00  0.00    +0.000 A 
ATOM     18  C   UNL     1      -0.176   0.946   0.000  0.00  0.00    +0.000 A 
ATOM     19  C   UNL     1      -0.588   0.232   0.000  0.00  0.00    +0.000 A 
ATOM     20  C   UNL     1      -1.413   0.232   0.000  0.00  0.00    +0.000 A 
BRANCH  15  21
ATOM     21  C   UNL     1      -2.651   0.946   0.000  0.00  0.00    +0.000 C 
BRANCH  21  22
ATOM     22 SE   UNL     1      -3.063   1.661   0.000  0.00  0.00    +0.000 Se
ATOM     23  O   UNL     1      -3.888   1.661   0.000  0.00  0.00    +0.000 OA
ATOM     24  O   UNL     1      -2.651   2.375   0.000  0.00  0.00    +0.000 OA
ENDBRANCH  21  22
ENDBRANCH  15  21
ENDBRANCH  14  18
ENDBRANCH   1  14
TORSDOF 9
