REMARK  Name = ZZ0
REMARK  3 active torsions:
REMARK  status: ('A' for Active; 'I' for Inactive)
REMARK    1  A    between atoms: C_7  and  N_8
REMARK    2  A    between atoms: N_8  and  C_9
REMARK    3  A    between atoms: C_14  and  C_15
REMARK                            x       y       z     vdW  Elec       q    Type
REMARK                         _______ _______ _______ _____ _____    ______ ____
ROOT
ATOM      1  C   UNL     1      -0.320   0.188   0.000  0.00  0.00    +0.000 A 
ATOM      2  N   UNL     1      -0.320  -0.637   0.000  0.00  0.00    +0.000 NA
ATOM      3  C   UNL     1      -1.034  -1.050   0.000  0.00  0.00    +0.000 A 
ATOM      4  C   UNL     1      -1.749  -0.637   0.000  0.00  0.00    +0.000 A 
ATOM      5  C   UNL     1      -1.749   0.188   0.000  0.00  0.00    +0.000 A 
ATOM      6  C   UNL     1      -1.034   0.600   0.000  0.00  0.00    +0.000 A 
ENDROOT
BRANCH   6   7
ATOM      7  C   UNL     1      -1.034   1.425   0.000  0.00  0.00    +0.000 C 
ATOM      8  O   UNL     1      -1.749   1.838   0.000  0.00  0.00    +0.000 OA
ATOM      9  O   UNL     1      -0.320   1.838   0.000  0.00  0.00    +0.000 OA
ENDBRANCH   6   7
BRANCH   1  10
ATOM     10  N   UNL     1       0.395   0.600   0.000  0.00  0.00    +0.000 NA
BRANCH  10  17
ATOM     11  C   UNL     1       1.824   0.600   0.000  0.00  0.00    +0.000 A 
ATOM     12  C   UNL     1       2.538   0.188   0.000  0.00  0.00    +0.000 A 
ATOM     13  C   UNL     1       2.538  -0.637   0.000  0.00  0.00    +0.000 A 
ATOM     14 CL   UNL     1       3.253  -1.050   0.000  0.00  0.00    +0.000 Cl
ATOM     15  C   UNL     1       1.824  -1.050   0.000  0.00  0.00    +0.000 A 
ATOM     16  C   UNL     1       1.109  -0.637   0.000  0.00  0.00    +0.000 A 
ATOM     17  C   UNL     1       1.109   0.188   0.000  0.00  0.00    +0.000 A 
ENDBRANCH  10  17
ENDBRANCH   1  10
TORSDOF 3
