REMARK  Name = ZZ1
REMARK  0 active torsions:
REMARK  status: ('A' for Active; 'I' for Inactive)
REMARK                            x       y       z     vdW  Elec       q    Type
REMARK                         _______ _______ _______ _____ _____    ______ ____
ROOT
ATOM      1  O   UNL     1      -2.252   1.435   0.000  0.00  0.00    +0.000 OA
ATOM      2  C   UNL     1      -1.537   1.023   0.000  0.00  0.00    +0.000 A 
ATOM      3  O   UNL     1      -0.823   1.435   0.000  0.00  0.00    +0.000 OA
ATOM      4  C   UNL     1      -0.108   1.023   0.000  0.00  0.00    +0.000 A 
ATOM      5  C   UNL     1       0.606   1.435   0.000  0.00  0.00    +0.000 A 
ATOM      6  C   UNL     1       1.321   1.023   0.000  0.00  0.00    +0.000 A 
ATOM      7  C   UNL     1       1.321   0.198   0.000  0.00  0.00    +0.000 A 
ATOM      8  C   UNL     1       0.606  -0.215   0.000  0.00  0.00    +0.000 A 
ATOM      9  C   UNL     1      -0.108   0.198   0.000  0.00  0.00    +0.000 A 
ATOM     10  C   UNL     1      -0.823  -0.215   0.000  0.00  0.00    +0.000 A 
ATOM     11  C   UNL     1      -0.823  -1.040   0.000  0.00  0.00    +0.000 C 
ATOM     12  C   UNL     1      -1.537   0.198   0.000  0.00  0.00    +0.000 A 
ENDROOT
TORSDOF 0
