REMARK  Name = ZZ2
REMARK  4 active torsions:
REMARK  status: ('A' for Active; 'I' for Inactive)
REMARK    1  A    between atoms: C_4  and  O_9
REMARK    2  A    between atoms: O_9  and  C_10
REMARK    3  A    between atoms: C_10  and  C_11
REMARK    4  A    between atoms: C_11  and  O_12
REMARK                            x       y       z     vdW  Elec       q    Type
REMARK                         _______ _______ _______ _____ _____    ______ ____
ROOT
ATOM      1  N   UNL     1      -2.578   0.640   0.000  0.00  0.00    +0.000 NA
ATOM      2  C   UNL     1      -1.864   0.228   0.000  0.00  0.00    +0.000 A 
ATOM      3  N   UNL     1      -1.149   0.640   0.000  0.00  0.00    +0.000 NA
ATOM      4  C   UNL     1      -0.435   0.228   0.000  0.00  0.00    +0.000 A 
ATOM      5  C   UNL     1      -0.435  -0.597   0.000  0.00  0.00    +0.000 A 
ATOM      6  C   UNL     1      -1.149  -1.010   0.000  0.00  0.00    +0.000 A 
ATOM      7  C   UNL     1      -1.149  -1.835   0.000  0.00  0.00    +0.000 C 
ATOM      8  N   UNL     1      -1.864  -0.597   0.000  0.00  0.00    +0.000 NA
ENDROOT
BRANCH   4   9
ATOM      9  O   UNL     1       0.280   0.640   0.000  0.00  0.00    +0.000 OA
BRANCH   9  10
ATOM     10  C   UNL     1       0.994   0.228   0.000  0.00  0.00    +0.000 C 
BRANCH  10  11
ATOM     11  C   UNL     1       1.709   0.640   0.000  0.00  0.00    +0.000 C 
BRANCH  11  12
ATOM     12  O   UNL     1       2.423   0.228   0.000  0.00  0.00    +0.000 OA
ATOM     13  C   UNL     1       3.138   0.640   0.000  0.00  0.00    +0.000 C 
ENDBRANCH  11  12
ENDBRANCH  10  11
ENDBRANCH   9  10
ENDBRANCH   4   9
TORSDOF 4
