REMARK  Name = ZZ4
REMARK  3 active torsions:
REMARK  status: ('A' for Active; 'I' for Inactive)
REMARK    1  A    between atoms: C_8  and  C_9
REMARK    2  A    between atoms: C_11  and  N_16
REMARK    3  A    between atoms: N_17  and  C_18
REMARK                            x       y       z     vdW  Elec       q    Type
REMARK                         _______ _______ _______ _____ _____    ______ ____
ROOT
ATOM      1  C   UNL     1       0.773  -0.270   0.000  0.00  0.00    +0.000 A 
ATOM      2  N   UNL     1       1.488  -0.682   0.000  0.00  0.00    +0.000 NA
ATOM      3  C   UNL     1       0.059  -0.682   0.000  0.00  0.00    +0.000 A 
ATOM      4  C   UNL     1       0.059  -1.507   0.000  0.00  0.00    +0.000 A 
ATOM      5  N   UNL     1       0.773  -1.920   0.000  0.00  0.00    +0.000 NA
ATOM      6  C   UNL     1       1.488  -1.507   0.000  0.00  0.00    +0.000 A 
ATOM      7  N   UNL     1       2.202  -1.920   0.000  0.00  0.00    +0.000 NA
ENDROOT
BRANCH   1  15
ATOM      8 CL   UNL     1       0.773   3.030   0.000  0.00  0.00    +0.000 Cl
ATOM      9  C   UNL     1       0.773   2.205   0.000  0.00  0.00    +0.000 A 
ATOM     10  C   UNL     1       1.488   1.793   0.000  0.00  0.00    +0.000 A 
ATOM     11  C   UNL     1       1.488   0.968   0.000  0.00  0.00    +0.000 A 
ATOM     12  C   UNL     1       0.059   1.793   0.000  0.00  0.00    +0.000 A 
ATOM     13  C   UNL     1       0.059   0.968   0.000  0.00  0.00    +0.000 A 
ATOM     14 CL   UNL     1      -0.656   0.555   0.000  0.00  0.00    +0.000 Cl
ATOM     15  C   UNL     1       0.773   0.555   0.000  0.00  0.00    +0.000 A 
ENDBRANCH   1  15
BRANCH   3  16
ATOM     16  N   UNL     1      -0.656  -0.270   0.000  0.00  0.00    +0.000 NA
ATOM     17  N   UNL     1      -1.370  -0.682   0.000  0.00  0.00    +0.000 NA
BRANCH  17  18
ATOM     18  C   UNL     1      -2.085  -0.270   0.000  0.00  0.00    +0.000 A 
ATOM     19  C   UNL     1      -2.799  -0.682   0.000  0.00  0.00    +0.000 A 
ATOM     20  C   UNL     1      -3.514  -0.270   0.000  0.00  0.00    +0.000 A 
ATOM     21  C   UNL     1      -3.514   0.555   0.000  0.00  0.00    +0.000 A 
ATOM     22  C   UNL     1      -2.799   0.968   0.000  0.00  0.00    +0.000 A 
ATOM     23  C   UNL     1      -2.085   0.555   0.000  0.00  0.00    +0.000 A 
ENDBRANCH  17  18
ENDBRANCH   3  16
TORSDOF 3
