REMARK  Name = ZZ5
REMARK  5 active torsions:
REMARK  status: ('A' for Active; 'I' for Inactive)
REMARK    1  A    between atoms: C_2  and  C_3
REMARK    2  A    between atoms: C_9  and  C_10
REMARK    3  A    between atoms: C_16  and  C_17
REMARK    4  A    between atoms: C_22  and  O_23
REMARK    5  A    between atoms: O_23  and  C_24
REMARK                            x       y       z     vdW  Elec       q    Type
REMARK                         _______ _______ _______ _____ _____    ______ ____
ROOT
ATOM      1  C   UNL     1       0.586  -1.363   0.000  0.00  0.00    +0.000 A 
ATOM      2  C   UNL     1       0.586  -2.188   0.000  0.00  0.00    +0.000 A 
ATOM      3  N   UNL     1       1.301  -2.601   0.000  0.00  0.00    +0.000 NA
ATOM      4  N   UNL     1      -0.128  -2.601   0.000  0.00  0.00    +0.000 NA
ATOM      5  C   UNL     1      -0.843  -2.188   0.000  0.00  0.00    +0.000 A 
ATOM      6  S   UNL     1      -1.627  -2.443   0.000  0.00  0.00    +0.000 S 
ATOM      7  C   UNL     1      -2.112  -1.776   0.000  0.00  0.00    +0.000 A 
ATOM      8  C   UNL     1      -1.627  -1.108   0.000  0.00  0.00    +0.000 A 
ATOM      9  N   UNL     1      -1.882  -0.324   0.000  0.00  0.00    +0.000 NA
ATOM     10  C   UNL     1      -0.843  -1.363   0.000  0.00  0.00    +0.000 A 
ATOM     11  C   UNL     1      -0.128  -0.951   0.000  0.00  0.00    +0.000 A 
ENDROOT
BRANCH  11  12
ATOM     12  C   UNL     1      -0.128  -0.126   0.000  0.00  0.00    +0.000 A 
ATOM     13  C   UNL     1      -0.843   0.287   0.000  0.00  0.00    +0.000 A 
ATOM     14  C   UNL     1      -0.843   1.112   0.000  0.00  0.00    +0.000 A 
ATOM     15  C   UNL     1       0.586   0.287   0.000  0.00  0.00    +0.000 A 
ATOM     16  C   UNL     1       0.586   1.112   0.000  0.00  0.00    +0.000 A 
ATOM     17  C   UNL     1      -0.128   1.524   0.000  0.00  0.00    +0.000 A 
BRANCH  17  18
ATOM     18  O   UNL     1      -0.128   2.349   0.000  0.00  0.00    +0.000 OA
BRANCH  18  19
ATOM     19  C   UNL     1       0.586   2.762   0.000  0.00  0.00    +0.000 C 
ATOM     20  C   UNL     1       0.586   3.587   0.000  0.00  0.00    +0.000 C 
ENDBRANCH  18  19
ENDBRANCH  17  18
ENDBRANCH  11  12
BRANCH   7  21
ATOM     21  C   UNL     1      -2.937  -1.776   0.000  0.00  0.00    +0.000 C 
ATOM     22  N   UNL     1      -3.350  -2.490   0.000  0.00  0.00    +0.000 NA
ATOM     23  O   UNL     1      -3.350  -1.061   0.000  0.00  0.00    +0.000 OA
ENDBRANCH   7  21
BRANCH   1  25
ATOM     24  N   UNL     1       2.015  -0.538   0.000  0.00  0.00    +0.000 NA
ATOM     25  C   UNL     1       1.301  -0.951   0.000  0.00  0.00    +0.000 C 
ENDBRANCH   1  25
TORSDOF 5
