REMARK  Name = ZZ6
REMARK  3 active torsions:
REMARK  status: ('A' for Active; 'I' for Inactive)
REMARK    1  A    between atoms: C_8  and  C_9
REMARK    2  A    between atoms: C_18  and  C_19
REMARK    3  A    between atoms: N_21  and  C_22
REMARK                            x       y       z     vdW  Elec       q    Type
REMARK                         _______ _______ _______ _____ _____    ______ ____
ROOT
ATOM      1  C   UNL     1       0.742   0.400   0.000  0.00  0.00    +0.000 A 
ATOM      2  N   UNL     1       1.457  -0.013   0.000  0.00  0.00    +0.000 NA
ATOM      3  C   UNL     1       1.457  -0.838   0.000  0.00  0.00    +0.000 A 
ATOM      4  N   UNL     1       2.171  -1.250   0.000  0.00  0.00    +0.000 NA
ATOM      5  N   UNL     1       0.742  -1.250   0.000  0.00  0.00    +0.000 NA
ATOM      6  C   UNL     1       0.028  -0.838   0.000  0.00  0.00    +0.000 A 
ATOM      7  S   UNL     1      -0.757  -1.093   0.000  0.00  0.00    +0.000 S 
ATOM      8  C   UNL     1       0.028  -0.013   0.000  0.00  0.00    +0.000 A 
ATOM      9  C   UNL     1      -0.757   0.242   0.000  0.00  0.00    +0.000 A 
ATOM     10  C   UNL     1      -1.242  -0.425   0.000  0.00  0.00    +0.000 A 
ENDROOT
BRANCH   1  18
ATOM     11 CL   UNL     1      -0.687   1.225   0.000  0.00  0.00    +0.000 Cl
ATOM     12  C   UNL     1       0.028   1.637   0.000  0.00  0.00    +0.000 A 
ATOM     13  C   UNL     1       0.028   2.462   0.000  0.00  0.00    +0.000 A 
ATOM     14  C   UNL     1       0.742   2.875   0.000  0.00  0.00    +0.000 A 
ATOM     15 CL   UNL     1       0.742   3.700   0.000  0.00  0.00    +0.000 Cl
ATOM     16  C   UNL     1       1.457   2.462   0.000  0.00  0.00    +0.000 A 
ATOM     17  C   UNL     1       1.457   1.637   0.000  0.00  0.00    +0.000 A 
ATOM     18  C   UNL     1       0.742   1.225   0.000  0.00  0.00    +0.000 A 
ENDBRANCH   1  18
BRANCH  10  19
ATOM     19  C   UNL     1      -2.067  -0.425   0.000  0.00  0.00    +0.000 C 
ATOM     20  O   UNL     1      -2.479   0.289   0.000  0.00  0.00    +0.000 OA
ATOM     21  N   UNL     1      -2.479  -1.139   0.000  0.00  0.00    +0.000 NA
BRANCH  21  22
ATOM     22  C   UNL     1      -3.304  -1.139   0.000  0.00  0.00    +0.000 C 
ATOM     23  C   UNL     1      -3.717  -1.854   0.000  0.00  0.00    +0.000 C 
ENDBRANCH  21  22
ENDBRANCH  10  19
TORSDOF 3
