REMARK  Name = ZZA
REMARK  2 active torsions:
REMARK  status: ('A' for Active; 'I' for Inactive)
REMARK    1  A    between atoms: C_2  and  C_4
REMARK    2  A    between atoms: N_7  and  C_9
REMARK                            x       y       z     vdW  Elec       q    Type
REMARK                         _______ _______ _______ _____ _____    ______ ____
ROOT
ATOM      1  C   UNL     1       3.017   9.624   0.000  0.00  0.00    +0.000 A 
ATOM      2  C   UNL     1       3.684   9.139   0.000  0.00  0.00    +0.000 A 
ATOM      3  N   UNL     1       3.429   8.354   0.000  0.00  0.00    +0.000 NA
ATOM      4  N   UNL     1       2.604   8.354   0.000  0.00  0.00    +0.000 N 
ATOM      5  C   UNL     1       2.349   9.139   0.000  0.00  0.00    +0.000 A 
ENDROOT
BRANCH   4   6
ATOM      6  C   UNL     1       2.119   7.687   0.000  0.00  0.00    +0.000 A 
ATOM      7  C   UNL     1       2.455   6.933   0.000  0.00  0.00    +0.000 A 
ATOM      8  C   UNL     1       1.970   6.266   0.000  0.00  0.00    +0.000 A 
ATOM      9  C   UNL     1       1.150   6.352   0.000  0.00  0.00    +0.000 A 
ATOM     10  C   UNL     1       0.814   7.106   0.000  0.00  0.00    +0.000 A 
ATOM     11  C   UNL     1       1.299   7.773   0.000  0.00  0.00    +0.000 A 
ENDBRANCH   4   6
BRANCH   1  13
ATOM     12  O   UNL     1       3.731  10.861   0.000  0.00  0.00    +0.000 OA
ATOM     13  C   UNL     1       3.017  10.449   0.000  0.00  0.00    +0.000 C 
ATOM     14  O   UNL     1       2.302  10.861   0.000  0.00  0.00    +0.000 OA
ENDBRANCH   1  13
TORSDOF 2
