REMARK  Name = ZZY
REMARK  4 active torsions:
REMARK  status: ('A' for Active; 'I' for Inactive)
REMARK    1  A    between atoms: C_2  and  C_4
REMARK    2  A    between atoms: N_12  and  S_13
REMARK    3  A    between atoms: S_13  and  C_16
REMARK    4  A    between atoms: C_17  and  N_18
REMARK                            x       y       z     vdW  Elec       q    Type
REMARK                         _______ _______ _______ _____ _____    ______ ____
ROOT
ATOM      1  C   UNL     1       1.805   0.930   0.000  0.00  0.00    +0.000 A 
ATOM      2  C   UNL     1       1.091   0.517   0.000  0.00  0.00    +0.000 A 
ATOM      3  C   UNL     1       0.376   0.930   0.000  0.00  0.00    +0.000 A 
ATOM      4  C   UNL     1       1.805   1.755   0.000  0.00  0.00    +0.000 A 
ATOM      5  N   UNL     1       1.091   2.167   0.000  0.00  0.00    +0.000 NA
ATOM      6  C   UNL     1       0.376   1.755   0.000  0.00  0.00    +0.000 A 
ATOM      7  C   UNL     1      -0.409   2.010   0.000  0.00  0.00    +0.000 A 
ATOM      8  C   UNL     1      -0.893   1.342   0.000  0.00  0.00    +0.000 A 
ATOM      9  N   UNL     1      -0.409   0.675   0.000  0.00  0.00    +0.000 N 
ENDROOT
BRANCH   1  11
ATOM     10  O   UNL     1       3.234   0.930   0.000  0.00  0.00    +0.000 OA
ATOM     11  C   UNL     1       2.519   0.517   0.000  0.00  0.00    +0.000 C 
ATOM     12  N   UNL     1       2.519  -0.308   0.000  0.00  0.00    +0.000 NA
ENDBRANCH   1  11
BRANCH   9  13
ATOM     13  S   UNL     1      -0.663  -0.110   0.000  0.00  0.00    +0.000 S 
ATOM     14  O   UNL     1      -1.448   0.145   0.000  0.00  0.00    +0.000 OA
ATOM     15  O   UNL     1       0.121  -0.365   0.000  0.00  0.00    +0.000 OA
BRANCH  13  16
ATOM     16  C   UNL     1      -0.918  -0.894   0.000  0.00  0.00    +0.000 A 
ATOM     17  C   UNL     1      -0.366  -1.507   0.000  0.00  0.00    +0.000 A 
ATOM     18  C   UNL     1      -1.725  -1.066   0.000  0.00  0.00    +0.000 A 
ATOM     19  C   UNL     1      -1.980  -1.850   0.000  0.00  0.00    +0.000 A 
ATOM     20  C   UNL     1      -1.428  -2.463   0.000  0.00  0.00    +0.000 A 
ATOM     21  C   UNL     1      -0.621  -2.292   0.000  0.00  0.00    +0.000 A 
BRANCH  17  22
ATOM     22  N   UNL     1       0.441  -1.336   0.000  0.00  0.00    +0.000 N 
ATOM     23  O   UNL     1       0.696  -0.551   0.000  0.00  0.00    +0.000 OA
ATOM     24  O   UNL     1       0.993  -1.949   0.000  0.00  0.00    +0.000 OA
ENDBRANCH  17  22
ENDBRANCH  13  16
ENDBRANCH   9  13
TORSDOF 4
