
     RDKit          3D

 33 37  0  0  0  0  0  0  0  0999 V2000
  144.7346  170.5322  133.6448 C   0  0  2  0  0  0  0  0  0  0  0  0
  145.1613  171.9566  133.7069 C   0  0  1  0  0  0  0  0  0  0  0  0
  145.4861  172.6086  132.4100 C   0  0  0  0  0  0  0  0  0  0  0  0
  143.9829  172.7308  134.3232 C   0  0  2  0  0  0  0  0  0  0  0  0
  144.4401  174.0862  134.8141 C   0  0  0  0  0  0  0  0  0  0  0  0
  143.3816  171.9788  135.4684 C   0  0  0  0  0  0  0  0  0  0  0  0
  144.3483  170.9938  136.0543 C   0  0  0  0  0  0  0  0  0  0  0  0
  144.7655  169.9375  135.0248 C   0  0  2  0  0  0  0  0  0  0  0  0
  146.1558  169.5315  135.3855 C   0  0  0  0  0  0  0  0  0  0  0  0
  146.7649  168.5245  134.4528 C   0  0  0  0  0  0  0  0  0  0  0  0
  146.7261  168.9450  133.0129 C   0  0  2  0  0  0  0  0  0  0  0  0
  147.8431  169.9445  132.8088 C   0  0  0  0  0  0  0  0  0  0  0  0
  145.4467  169.6750  132.6841 C   0  0  0  0  0  0  0  0  0  0  0  0
  144.9266  169.5379  131.4718 C   0  0  0  0  0  0  0  0  0  0  0  0
  145.4852  168.7245  130.3640 C   0  0  0  0  0  0  0  0  0  0  0  0
  146.8560  168.2825  130.7045 C   0  0  2  0  0  0  0  0  0  0  0  0
  147.5380  167.4353  129.6744 C   0  0  1  0  0  0  0  0  0  0  0  0
  146.7826  166.2261  129.2842 C   0  0  0  0  0  0  0  0  0  0  0  0
  147.6933  168.3257  128.4388 C   0  0  0  0  0  0  0  0  0  0  0  0
  148.4510  167.6754  127.3478 C   0  0  0  0  0  0  0  0  0  0  0  0
  149.6340  166.8593  127.7430 C   0  0  2  0  0  0  0  0  0  0  0  0
  149.5839  165.5721  127.1388 O   0  0  0  0  0  0  0  0  0  0  0  0
  149.9361  166.7627  129.1808 C   0  0  0  0  0  0  0  0  0  0  0  0
  150.2912  165.2931  129.4845 C   0  0  0  0  0  0  0  0  0  0  0  0
  151.2708  167.4869  129.4572 C   0  0  0  0  0  0  0  0  0  0  0  0
  148.9383  167.1932  130.1617 C   0  0  2  0  0  0  0  0  0  0  0  0
  148.8330  166.3143  131.3913 C   0  0  0  0  0  0  0  0  0  0  0  0
  148.0621  166.9646  132.4919 C   0  0  0  0  0  0  0  0  0  0  0  0
  146.8593  167.7365  132.0941 C   0  0  1  0  0  0  0  0  0  0  0  0
  145.6303  166.8787  132.3782 C   0  0  0  0  0  0  0  0  0  0  0  0
  143.7784  168.8659  135.1100 C   0  0  0  0  0  0  0  0  0  0  0  0
  143.1387  168.6407  136.3166 O   0  0  0  0  0  0  0  0  0  0  0  0
  143.4690  168.1266  134.1473 O   0  0  0  0  0  0  0  0  0  0  0  0
  1  2  1  0
  2  3  1  6
  2  4  1  0
  4  5  1  1
  4  6  1  0
  6  7  1  0
  7  8  1  0
  8  9  1  0
  9 10  1  0
 10 11  1  0
 11 12  1  1
 11 13  1  0
 13 14  2  0
 14 15  1  0
 16 15  1  6
 16 17  1  0
 17 18  1  6
 17 19  1  0
 19 20  1  0
 20 21  1  0
 21 22  1  1
 21 23  1  0
 23 24  1  0
 23 25  1  0
 23 26  1  0
 26 27  1  1
 27 28  1  0
 28 29  1  0
 29 30  1  6
  8 31  1  6
 31 32  1  0
 31 33  2  0
  8  1  1  0
 29 11  1  0
  1 13  1  6
 29 16  1  0
 26 17  1  0
M  END
$$$$
