
     RDKit          3D

 33 37  0  0  0  0  0  0  0  0999 V2000
  178.5881  163.1645  108.7059 C   0  0  2  0  0  0  0  0  0  0  0  0
  178.6206  163.3686  107.2320 C   0  0  1  0  0  0  0  0  0  0  0  0
  177.9171  164.5723  106.7137 C   0  0  0  0  0  0  0  0  0  0  0  0
  180.1049  163.5095  106.8513 C   0  0  2  0  0  0  0  0  0  0  0  0
  180.2904  163.3063  105.3642 C   0  0  0  0  0  0  0  0  0  0  0  0
  180.9481  162.5148  107.5847 C   0  0  0  0  0  0  0  0  0  0  0  0
  180.1414  161.3404  108.0517 C   0  0  0  0  0  0  0  0  0  0  0  0
  179.0421  161.7689  109.0302 C   0  0  2  0  0  0  0  0  0  0  0  0
  177.9209  160.8009  108.8462 C   0  0  0  0  0  0  0  0  0  0  0  0
  176.7156  161.0859  109.6953 C   0  0  0  0  0  0  0  0  0  0  0  0
  176.1960  162.4854  109.5432 C   0  0  2  0  0  0  0  0  0  0  0  0
  175.4100  162.5324  108.2515 C   0  0  0  0  0  0  0  0  0  0  0  0
  177.3209  163.4789  109.3842 C   0  0  0  0  0  0  0  0  0  0  0  0
  177.1714  164.6983  109.8840 C   0  0  0  0  0  0  0  0  0  0  0  0
  175.9784  165.2131  110.6001 C   0  0  0  0  0  0  0  0  0  0  0  0
  174.8554  164.2596  110.4593 C   0  0  2  0  0  0  0  0  0  0  0  0
  173.5845  164.6492  111.1499 C   0  0  1  0  0  0  0  0  0  0  0  0
  173.7363  164.9217  112.5948 C   0  0  0  0  0  0  0  0  0  0  0  0
  173.1145  165.9347  110.4642 C   0  0  0  0  0  0  0  0  0  0  0  0
  171.8021  166.4069  110.9557 C   0  0  0  0  0  0  0  0  0  0  0  0
  170.7674  165.3667  111.2184 C   0  0  2  0  0  0  0  0  0  0  0  0
  170.2012  165.5335  112.5130 O   0  0  0  0  0  0  0  0  0  0  0  0
  171.1456  163.9641  110.9778 C   0  0  0  0  0  0  0  0  0  0  0  0
  170.6046  163.1273  112.1547 C   0  0  0  0  0  0  0  0  0  0  0  0
  170.3240  163.4258  109.7872 C   0  0  0  0  0  0  0  0  0  0  0  0
  172.5551  163.6151  110.7921 C   0  0  2  0  0  0  0  0  0  0  0  0
  172.9828  162.3191  111.4501 C   0  0  0  0  0  0  0  0  0  0  0  0
  174.3109  161.8436  110.9619 C   0  0  0  0  0  0  0  0  0  0  0  0
  175.3497  162.8806  110.7474 C   0  0  1  0  0  0  0  0  0  0  0  0
  176.3043  162.8484  111.9369 C   0  0  0  0  0  0  0  0  0  0  0  0
  179.6446  161.7548  110.3595 C   0  0  0  0  0  0  0  0  0  0  0  0
  179.7447  162.9440  111.0607 O   0  0  0  0  0  0  0  0  0  0  0  0
  180.0829  160.7206  110.9139 O   0  0  0  0  0  0  0  0  0  0  0  0
  1  2  1  0
  2  3  1  1
  2  4  1  0
  4  5  1  6
  4  6  1  0
  6  7  1  0
  7  8  1  0
  8  9  1  0
  9 10  1  0
 10 11  1  0
 11 12  1  6
 11 13  1  0
 13 14  2  0
 14 15  1  0
 16 15  1  1
 16 17  1  0
 17 18  1  1
 17 19  1  0
 19 20  1  0
 20 21  1  0
 21 22  1  1
 21 23  1  0
 23 24  1  0
 23 25  1  0
 23 26  1  0
 26 27  1  1
 27 28  1  0
 28 29  1  0
 29 30  1  1
  8 31  1  1
 31 32  1  0
 31 33  2  0
  8  1  1  0
 29 11  1  0
  1 13  1  6
 29 16  1  0
 26 17  1  0
M  END
$$$$
