
     RDKit          3D

 33 37  0  0  0  0  0  0  0  0999 V2000
  203.5126  136.9520  131.4187 C   0  0  2  0  0  0  0  0  0  0  0  0
  204.1546  138.2474  131.7717 C   0  0  1  0  0  0  0  0  0  0  0  0
  205.5266  138.1738  132.3414 C   0  0  0  0  0  0  0  0  0  0  0  0
  204.2477  139.0507  130.4625 C   0  0  2  0  0  0  0  0  0  0  0  0
  204.4923  140.5138  130.7566 C   0  0  0  0  0  0  0  0  0  0  0  0
  202.9924  138.9218  129.6586 C   0  0  0  0  0  0  0  0  0  0  0  0
  201.8237  138.5316  130.5129 C   0  0  0  0  0  0  0  0  0  0  0  0
  202.0450  137.1677  131.1765 C   0  0  2  0  0  0  0  0  0  0  0  0
  201.3046  137.2104  132.4719 C   0  0  0  0  0  0  0  0  0  0  0  0
  201.4411  135.9656  133.3006 C   0  0  0  0  0  0  0  0  0  0  0  0
  202.8664  135.5707  133.5538 C   0  0  2  0  0  0  0  0  0  0  0  0
  203.3906  136.4688  134.6526 C   0  0  0  0  0  0  0  0  0  0  0  0
  203.7358  135.8338  132.3486 C   0  0  0  0  0  0  0  0  0  0  0  0
  204.7516  135.0171  132.1032 C   0  0  0  0  0  0  0  0  0  0  0  0
  205.1449  133.8379  132.9130 C   0  0  0  0  0  0  0  0  0  0  0  0
  204.4052  133.8370  134.1948 C   0  0  2  0  0  0  0  0  0  0  0  0
  204.6962  132.6872  135.1098 C   0  0  1  0  0  0  0  0  0  0  0  0
  204.4944  131.3568  134.4979 C   0  0  0  0  0  0  0  0  0  0  0  0
  206.1723  132.8222  135.4925 C   0  0  0  0  0  0  0  0  0  0  0  0
  206.6070  131.8180  136.4874 C   0  0  0  0  0  0  0  0  0  0  0  0
  205.6520  131.5027  137.5875 C   0  0  2  0  0  0  0  0  0  0  0  0
  205.4723  130.0968  137.7126 O   0  0  0  0  0  0  0  0  0  0  0  0
  204.3593  132.2076  137.5803 C   0  0  0  0  0  0  0  0  0  0  0  0
  203.2638  131.1750  137.9146 C   0  0  0  0  0  0  0  0  0  0  0  0
  204.3026  133.1527  138.7993 C   0  0  0  0  0  0  0  0  0  0  0  0
  203.9370  132.9351  136.3822 C   0  0  2  0  0  0  0  0  0  0  0  0
  202.4639  132.8137  136.0491 C   0  0  0  0  0  0  0  0  0  0  0  0
  202.0234  133.8211  135.0393 C   0  0  0  0  0  0  0  0  0  0  0  0
  202.9602  134.0948  133.9221 C   0  0  1  0  0  0  0  0  0  0  0  0
  202.4635  133.3418  132.6919 C   0  0  0  0  0  0  0  0  0  0  0  0
  201.5599  136.1660  130.2325 C   0  0  0  0  0  0  0  0  0  0  0  0
  200.3574  136.3862  129.5834 O   0  0  0  0  0  0  0  0  0  0  0  0
  202.1710  135.1048  129.9686 O   0  0  0  0  0  0  0  0  0  0  0  0
  1  2  1  0
  2  3  1  6
  2  4  1  0
  4  5  1  1
  4  6  1  0
  6  7  1  0
  7  8  1  0
  8  9  1  0
  9 10  1  0
 10 11  1  0
 11 12  1  1
 11 13  1  0
 13 14  2  0
 14 15  1  0
 16 15  1  6
 16 17  1  0
 17 18  1  6
 17 19  1  0
 19 20  1  0
 20 21  1  0
 21 22  1  6
 21 23  1  0
 23 24  1  0
 23 25  1  0
 23 26  1  0
 26 27  1  6
 27 28  1  0
 28 29  1  0
 29 30  1  6
  8 31  1  6
 31 32  1  0
 31 33  2  0
  8  1  1  0
 29 11  1  0
  1 13  1  1
 29 16  1  0
 26 17  1  0
M  END
$$$$
