
     RDKit          3D

 33 37  0  0  0  0  0  0  0  0999 V2000
  163.4049  148.2312  130.8109 C   0  0  2  0  0  0  0  0  0  0  0  0
  163.4714  146.8049  131.2306 C   0  0  1  0  0  0  0  0  0  0  0  0
  164.8256  146.1921  131.2849 C   0  0  0  0  0  0  0  0  0  0  0  0
  162.8889  146.7492  132.6539 C   0  0  2  0  0  0  0  0  0  0  0  0
  162.5234  145.3281  133.0199 C   0  0  0  0  0  0  0  0  0  0  0  0
  161.6701  147.6086  132.7734 C   0  0  0  0  0  0  0  0  0  0  0  0
  161.0318  147.8553  131.4394 C   0  0  0  0  0  0  0  0  0  0  0  0
  161.9822  148.5955  130.4914 C   0  0  2  0  0  0  0  0  0  0  0  0
  161.6271  148.1471  129.1128 C   0  0  0  0  0  0  0  0  0  0  0  0
  162.4903  148.7336  128.0330 C   0  0  0  0  0  0  0  0  0  0  0  0
  163.9582  148.5240  128.2628 C   0  0  2  0  0  0  0  0  0  0  0  0
  164.2737  147.0985  127.8666 C   0  0  0  0  0  0  0  0  0  0  0  0
  164.3110  148.6389  129.7257 C   0  0  0  0  0  0  0  0  0  0  0  0
  165.4935  149.1377  130.0603 C   0  0  0  0  0  0  0  0  0  0  0  0
  166.5456  149.6047  129.1243 C   0  0  0  0  0  0  0  0  0  0  0  0
  166.2072  149.1987  127.7420 C   0  0  2  0  0  0  0  0  0  0  0  0
  167.1824  149.6203  126.6860 C   0  0  1  0  0  0  0  0  0  0  0  0
  167.4516  151.0733  126.6518 C   0  0  0  0  0  0  0  0  0  0  0  0
  168.4907  148.8957  127.0136 C   0  0  0  0  0  0  0  0  0  0  0  0
  169.5447  149.1167  126.0001 C   0  0  0  0  0  0  0  0  0  0  0  0
  169.1161  149.1206  124.5725 C   0  0  2  0  0  0  0  0  0  0  0  0
  169.6112  150.2725  123.8999 O   0  0  0  0  0  0  0  0  0  0  0  0
  167.6839  148.9167  124.2984 C   0  0  0  0  0  0  0  0  0  0  0  0
  167.2705  149.9244  123.2067 C   0  0  0  0  0  0  0  0  0  0  0  0
  167.5040  147.5624  123.5802 C   0  0  0  0  0  0  0  0  0  0  0  0
  166.7150  149.0190  125.3910 C   0  0  2  0  0  0  0  0  0  0  0  0
  165.4150  149.7073  125.0276 C   0  0  0  0  0  0  0  0  0  0  0  0
  164.3510  149.4926  126.0525 C   0  0  0  0  0  0  0  0  0  0  0  0
  164.7782  149.5366  127.4724 C   0  0  1  0  0  0  0  0  0  0  0  0
  164.3916  150.8981  128.0416 C   0  0  0  0  0  0  0  0  0  0  0  0
  161.7828  150.0203  130.7369 C   0  0  0  0  0  0  0  0  0  0  0  0
  160.5655  150.5913  130.4082 O   0  0  0  0  0  0  0  0  0  0  0  0
  162.6553  150.7697  131.2330 O   0  0  0  0  0  0  0  0  0  0  0  0
  1  2  1  0
  2  3  1  1
  2  4  1  0
  4  5  1  6
  4  6  1  0
  6  7  1  0
  7  8  1  0
  8  9  1  0
  9 10  1  0
 10 11  1  0
 11 12  1  6
 11 13  1  0
 13 14  2  0
 14 15  1  0
 16 15  1  1
 16 17  1  0
 17 18  1  6
 17 19  1  0
 19 20  1  0
 20 21  1  0
 21 22  1  1
 21 23  1  0
 23 24  1  0
 23 25  1  0
 23 26  1  0
 26 27  1  6
 27 28  1  0
 28 29  1  0
 29 30  1  1
  8 31  1  6
 31 32  1  0
 31 33  2  0
  8  1  1  0
 29 11  1  0
  1 13  1  6
 29 16  1  0
 26 17  1  0
M  END
$$$$
