
     RDKit          3D

 33 37  0  0  0  0  0  0  0  0999 V2000
  189.0415  177.2478  128.7833 C   0  0  2  0  0  0  0  0  0  0  0  0
  189.2926  177.2733  130.2500 C   0  0  1  0  0  0  0  0  0  0  0  0
  188.4352  178.1852  131.0536 C   0  0  0  0  0  0  0  0  0  0  0  0
  189.0338  175.8427  130.7543 C   0  0  2  0  0  0  0  0  0  0  0  0
  189.6463  175.6461  132.1230 C   0  0  0  0  0  0  0  0  0  0  0  0
  189.6069  174.8270  129.8172 C   0  0  0  0  0  0  0  0  0  0  0  0
  190.6989  175.4075  128.9695 C   0  0  0  0  0  0  0  0  0  0  0  0
  190.1787  176.5506  128.0906 C   0  0  2  0  0  0  0  0  0  0  0  0
  191.3262  177.4866  127.9033 C   0  0  0  0  0  0  0  0  0  0  0  0
  190.9974  178.7106  127.0980 C   0  0  0  0  0  0  0  0  0  0  0  0
  189.8149  179.4705  127.6232 C   0  0  2  0  0  0  0  0  0  0  0  0
  190.2917  180.2715  128.8148 C   0  0  0  0  0  0  0  0  0  0  0  0
  188.7471  178.5404  128.1452 C   0  0  0  0  0  0  0  0  0  0  0  0
  187.4751  178.8947  128.0210 C   0  0  0  0  0  0  0  0  0  0  0  0
  186.9689  180.1490  127.4114 C   0  0  0  0  0  0  0  0  0  0  0  0
  188.0900  181.0887  127.1870 C   0  0  2  0  0  0  0  0  0  0  0  0
  187.7218  182.3981  126.5593 C   0  0  1  0  0  0  0  0  0  0  0  0
  187.0021  182.2754  125.2740 C   0  0  0  0  0  0  0  0  0  0  0  0
  186.8003  183.0969  127.5624 C   0  0  0  0  0  0  0  0  0  0  0  0
  186.4220  184.4646  127.1461 C   0  0  0  0  0  0  0  0  0  0  0  0
  187.4874  185.2962  126.5175 C   0  0  2  0  0  0  0  0  0  0  0  0
  187.0297  185.8638  125.2957 O   0  0  0  0  0  0  0  0  0  0  0  0
  188.8152  184.6807  126.3559 C   0  0  0  0  0  0  0  0  0  0  0  0
  189.3312  185.0487  124.9501 C   0  0  0  0  0  0  0  0  0  0  0  0
  189.8164  185.4121  127.2750 C   0  0  0  0  0  0  0  0  0  0  0  0
  188.9692  183.2346  126.5240 C   0  0  2  0  0  0  0  0  0  0  0  0
  189.9158  182.5760  125.5413 C   0  0  0  0  0  0  0  0  0  0  0  0
  190.2938  181.1923  125.9546 C   0  0  0  0  0  0  0  0  0  0  0  0
  189.2161  180.3553  126.5366 C   0  0  1  0  0  0  0  0  0  0  0  0
  188.7289  179.3926  125.4581 C   0  0  0  0  0  0  0  0  0  0  0  0
  189.6896  175.9356  126.8607 C   0  0  0  0  0  0  0  0  0  0  0  0
  190.6053  175.4059  125.9682 O   0  0  0  0  0  0  0  0  0  0  0  0
  188.4769  175.8555  126.5573 O   0  0  0  0  0  0  0  0  0  0  0  0
  1  2  1  0
  2  3  1  1
  2  4  1  0
  4  5  1  1
  4  6  1  0
  6  7  1  0
  7  8  1  0
  8  9  1  0
  9 10  1  0
 10 11  1  0
 11 12  1  1
 11 13  1  0
 13 14  2  0
 14 15  1  0
 16 15  1  6
 16 17  1  0
 17 18  1  6
 17 19  1  0
 19 20  1  0
 20 21  1  0
 21 22  1  6
 21 23  1  0
 23 24  1  0
 23 25  1  0
 23 26  1  0
 26 27  1  6
 27 28  1  0
 28 29  1  0
 29 30  1  6
  8 31  1  6
 31 32  1  0
 31 33  2  0
  8  1  1  0
 29 11  1  0
  1 13  1  6
 29 16  1  0
 26 17  1  0
M  END
$$$$
