
     RDKit          3D

 33 37  0  0  0  0  0  0  0  0999 V2000
  165.1140  158.2646  127.9148 C   0  0  2  0  0  0  0  0  0  0  0  0
  165.7613  159.3514  127.1306 C   0  0  1  0  0  0  0  0  0  0  0  0
  165.3905  159.4429  125.6931 C   0  0  0  0  0  0  0  0  0  0  0  0
  165.3354  160.6722  127.7957 C   0  0  2  0  0  0  0  0  0  0  0  0
  166.2425  161.8004  127.3584 C   0  0  0  0  0  0  0  0  0  0  0  0
  165.3802  160.5656  129.2874 C   0  0  0  0  0  0  0  0  0  0  0  0
  166.2960  159.4674  129.7382 C   0  0  0  0  0  0  0  0  0  0  0  0
  165.8255  158.1004  129.2285 C   0  0  2  0  0  0  0  0  0  0  0  0
  167.0569  157.2752  129.0538 C   0  0  0  0  0  0  0  0  0  0  0  0
  166.8039  155.8989  128.5092 C   0  0  0  0  0  0  0  0  0  0  0  0
  166.0179  155.8982  127.2310 C   0  0  2  0  0  0  0  0  0  0  0  0
  166.9752  156.2617  126.1174 C   0  0  0  0  0  0  0  0  0  0  0  0
  164.9550  156.9697  127.2346 C   0  0  0  0  0  0  0  0  0  0  0  0
  163.8133  156.7389  126.6004 C   0  0  0  0  0  0  0  0  0  0  0  0
  163.4559  155.5056  125.8575 C   0  0  0  0  0  0  0  0  0  0  0  0
  164.6532  154.6516  125.6923 C   0  0  2  0  0  0  0  0  0  0  0  0
  164.4320  153.3591  124.9679 C   0  0  1  0  0  0  0  0  0  0  0  0
  163.3755  152.5069  125.5532 C   0  0  0  0  0  0  0  0  0  0  0  0
  164.0084  153.7442  123.5480 C   0  0  0  0  0  0  0  0  0  0  0  0
  163.8497  152.5768  122.6543 C   0  0  0  0  0  0  0  0  0  0  0  0
  164.8583  151.4871  122.7841 C   0  0  2  0  0  0  0  0  0  0  0  0
  164.2206  150.2222  122.9181 O   0  0  0  0  0  0  0  0  0  0  0  0
  165.9136  151.6627  123.7958 C   0  0  0  0  0  0  0  0  0  0  0  0
  166.0886  150.3153  124.5251 C   0  0  0  0  0  0  0  0  0  0  0  0
  167.2692  151.8249  123.0758 C   0  0  0  0  0  0  0  0  0  0  0  0
  165.7763  152.7068  124.8127 C   0  0  2  0  0  0  0  0  0  0  0  0
  166.2381  152.3097  126.2001 C   0  0  0  0  0  0  0  0  0  0  0  0
  166.3921  153.4852  127.1072 C   0  0  0  0  0  0  0  0  0  0  0  0
  165.3578  154.5436  127.0041 C   0  0  1  0  0  0  0  0  0  0  0  0
  164.3855  154.3710  128.1669 C   0  0  0  0  0  0  0  0  0  0  0  0
  164.8881  157.5894  130.2237 C   0  0  0  0  0  0  0  0  0  0  0  0
  165.3776  157.1629  131.4461 O   0  0  0  0  0  0  0  0  0  0  0  0
  163.6516  157.5112  130.0394 O   0  0  0  0  0  0  0  0  0  0  0  0
  1  2  1  0
  2  3  1  6
  2  4  1  0
  4  5  1  6
  4  6  1  0
  6  7  1  0
  7  8  1  0
  8  9  1  0
  9 10  1  0
 10 11  1  0
 11 12  1  6
 11 13  1  0
 13 14  2  0
 14 15  1  0
 16 15  1  1
 16 17  1  0
 17 18  1  1
 17 19  1  0
 19 20  1  0
 20 21  1  0
 21 22  1  1
 21 23  1  0
 23 24  1  0
 23 25  1  0
 23 26  1  0
 26 27  1  1
 27 28  1  0
 28 29  1  0
 29 30  1  1
  8 31  1  1
 31 32  1  0
 31 33  2  0
  8  1  1  0
 29 11  1  0
  1 13  1  6
 29 16  1  0
 26 17  1  0
M  END
$$$$
