
     RDKit          3D

 33 37  0  0  0  0  0  0  0  0999 V2000
  146.4580  169.4923  131.8874 C   0  0  2  0  0  0  0  0  0  0  0  0
  146.0178  170.6751  131.0986 C   0  0  1  0  0  0  0  0  0  0  0  0
  145.2936  170.3941  129.8302 C   0  0  0  0  0  0  0  0  0  0  0  0
  145.0569  171.4626  132.0067 C   0  0  2  0  0  0  0  0  0  0  0  0
  144.8741  172.8710  131.4872 C   0  0  0  0  0  0  0  0  0  0  0  0
  145.5706  171.5274  133.4104 C   0  0  0  0  0  0  0  0  0  0  0  0
  147.0531  171.3118  133.4696 C   0  0  0  0  0  0  0  0  0  0  0  0
  147.4398  169.9266  132.9393 C   0  0  2  0  0  0  0  0  0  0  0  0
  148.8034  170.0725  132.3499 C   0  0  0  0  0  0  0  0  0  0  0  0
  149.3431  168.8168  131.7280 C   0  0  0  0  0  0  0  0  0  0  0  0
  148.4220  168.2117  130.7096 C   0  0  2  0  0  0  0  0  0  0  0  0
  148.5732  169.0152  129.4369 C   0  0  0  0  0  0  0  0  0  0  0  0
  146.9764  168.3484  131.1209 C   0  0  0  0  0  0  0  0  0  0  0  0
  146.1233  167.3902  130.7845 C   0  0  0  0  0  0  0  0  0  0  0  0
  146.4421  166.1610  130.0173 C   0  0  0  0  0  0  0  0  0  0  0  0
  147.8019  166.2639  129.4425 C   0  0  2  0  0  0  0  0  0  0  0  0
  148.2616  165.0784  128.6503 C   0  0  1  0  0  0  0  0  0  0  0  0
  148.2026  163.7966  129.3840 C   0  0  0  0  0  0  0  0  0  0  0  0
  147.3179  164.9890  127.4482 C   0  0  0  0  0  0  0  0  0  0  0  0
  147.6964  163.9257  126.4926 C   0  0  0  0  0  0  0  0  0  0  0  0
  149.1515  163.7509  126.2210 C   0  0  2  0  0  0  0  0  0  0  0  0
  149.5312  162.3870  126.3632 O   0  0  0  0  0  0  0  0  0  0  0  0
  150.0818  164.6413  126.9350 C   0  0  0  0  0  0  0  0  0  0  0  0
  151.2654  163.7824  127.4245 C   0  0  0  0  0  0  0  0  0  0  0  0
  150.7572  165.5775  125.9105 C   0  0  0  0  0  0  0  0  0  0  0  0
  149.6023  165.4303  128.0710 C   0  0  2  0  0  0  0  0  0  0  0  0
  150.5722  165.5325  129.2305 C   0  0  0  0  0  0  0  0  0  0  0  0
  150.1889  166.5999  130.2012 C   0  0  0  0  0  0  0  0  0  0  0  0
  148.7426  166.7365  130.5012 C   0  0  1  0  0  0  0  0  0  0  0  0
  148.4732  166.0729  131.8481 C   0  0  0  0  0  0  0  0  0  0  0  0
  147.3639  169.0138  134.0756 C   0  0  0  0  0  0  0  0  0  0  0  0
  148.5348  168.4736  134.5784 O   0  0  0  0  0  0  0  0  0  0  0  0
  146.2915  168.6837  134.6325 O   0  0  0  0  0  0  0  0  0  0  0  0
  1  2  1  0
  2  3  1  6
  2  4  1  0
  4  5  1  6
  4  6  1  0
  6  7  1  0
  7  8  1  0
  8  9  1  0
  9 10  1  0
 10 11  1  0
 11 12  1  6
 11 13  1  0
 13 14  2  0
 14 15  1  0
 16 15  1  1
 16 17  1  0
 17 18  1  1
 17 19  1  0
 19 20  1  0
 20 21  1  0
 21 22  1  1
 21 23  1  0
 23 24  1  0
 23 25  1  0
 23 26  1  0
 26 27  1  1
 27 28  1  0
 28 29  1  0
 29 30  1  1
  8 31  1  1
 31 32  1  0
 31 33  2  0
  8  1  1  0
 29 11  1  0
  1 13  1  6
 29 16  1  0
 26 17  1  0
M  END
$$$$
