
     RDKit          3D

 33 37  0  0  0  0  0  0  0  0999 V2000
  189.4132  141.1445  127.3026 C   0  0  2  0  0  0  0  0  0  0  0  0
  190.2156  140.0149  127.8457 C   0  0  1  0  0  0  0  0  0  0  0  0
  189.6282  138.6558  127.7038 C   0  0  0  0  0  0  0  0  0  0  0  0
  191.5441  140.0202  127.0690 C   0  0  2  0  0  0  0  0  0  0  0  0
  192.5860  139.2025  127.7988 C   0  0  0  0  0  0  0  0  0  0  0  0
  192.0601  141.4130  126.8896 C   0  0  0  0  0  0  0  0  0  0  0  0
  191.4962  142.3503  127.9151 C   0  0  0  0  0  0  0  0  0  0  0  0
  189.9701  142.4457  127.8084 C   0  0  2  0  0  0  0  0  0  0  0  0
  189.4731  142.7231  129.1882 C   0  0  0  0  0  0  0  0  0  0  0  0
  187.9779  142.8053  129.2993 C   0  0  0  0  0  0  0  0  0  0  0  0
  187.2715  141.6019  128.7477 C   0  0  2  0  0  0  0  0  0  0  0  0
  187.3792  140.5059  129.7848 C   0  0  0  0  0  0  0  0  0  0  0  0
  187.9583  141.0759  127.5110 C   0  0  0  0  0  0  0  0  0  0  0  0
  187.2205  140.5280  126.5548 C   0  0  0  0  0  0  0  0  0  0  0  0
  185.7461  140.3634  126.5695 C   0  0  0  0  0  0  0  0  0  0  0  0
  185.2192  140.6595  127.9204 C   0  0  2  0  0  0  0  0  0  0  0  0
  183.7336  140.5459  128.0754 C   0  0  1  0  0  0  0  0  0  0  0  0
  182.9581  141.3687  127.1234 C   0  0  0  0  0  0  0  0  0  0  0  0
  183.3994  139.0734  127.8226 C   0  0  0  0  0  0  0  0  0  0  0  0
  181.9713  138.7578  128.0414 C   0  0  0  0  0  0  0  0  0  0  0  0
  181.3087  139.4082  129.2074 C   0  0  2  0  0  0  0  0  0  0  0  0
  180.0902  140.0289  128.8141 O   0  0  0  0  0  0  0  0  0  0  0  0
  182.1284  140.3143  130.0290 C   0  0  0  0  0  0  0  0  0  0  0  0
  181.2752  141.5605  130.3409 C   0  0  0  0  0  0  0  0  0  0  0  0
  182.3141  139.6855  131.4264 C   0  0  0  0  0  0  0  0  0  0  0  0
  183.4246  140.7743  129.5278 C   0  0  2  0  0  0  0  0  0  0  0  0
  183.7445  142.2251  129.8252 C   0  0  0  0  0  0  0  0  0  0  0  0
  185.1839  142.5490  129.5981 C   0  0  0  0  0  0  0  0  0  0  0  0
  185.8233  141.9344  128.4090 C   0  0  1  0  0  0  0  0  0  0  0  0
  185.9001  142.9920  127.3123 C   0  0  0  0  0  0  0  0  0  0  0  0
  189.6895  143.4995  126.8384 C   0  0  0  0  0  0  0  0  0  0  0  0
  190.7477  144.0984  126.1772 O   0  0  0  0  0  0  0  0  0  0  0  0
  188.5358  143.9021  126.5625 O   0  0  0  0  0  0  0  0  0  0  0  0
  1  2  1  0
  2  3  1  6
  2  4  1  0
  4  5  1  1
  4  6  1  0
  6  7  1  0
  7  8  1  0
  8  9  1  0
  9 10  1  0
 10 11  1  0
 11 12  1  1
 11 13  1  0
 13 14  2  0
 14 15  1  0
 16 15  1  6
 16 17  1  0
 17 18  1  6
 17 19  1  0
 19 20  1  0
 20 21  1  0
 21 22  1  6
 21 23  1  0
 23 24  1  0
 23 25  1  0
 23 26  1  0
 26 27  1  6
 27 28  1  0
 28 29  1  0
 29 30  1  6
  8 31  1  6
 31 32  1  0
 31 33  2  0
  8  1  1  0
 29 11  1  0
  1 13  1  1
 29 16  1  0
 26 17  1  0
M  END
$$$$
