
     RDKit          3D

 33 37  0  0  0  0  0  0  0  0999 V2000
  187.6583  161.9846  136.7010 C   0  0  2  0  0  0  0  0  0  0  0  0
  187.9895  163.4337  136.6288 C   0  0  1  0  0  0  0  0  0  0  0  0
  187.2761  164.3252  137.5820 C   0  0  0  0  0  0  0  0  0  0  0  0
  189.4927  163.5461  136.9382 C   0  0  2  0  0  0  0  0  0  0  0  0
  190.0245  164.8903  136.4941 C   0  0  0  0  0  0  0  0  0  0  0  0
  190.2685  162.4673  136.2505 C   0  0  0  0  0  0  0  0  0  0  0  0
  189.5280  161.9190  135.0676 C   0  0  0  0  0  0  0  0  0  0  0  0
  188.1964  161.2846  135.4847 C   0  0  2  0  0  0  0  0  0  0  0  0
  187.2698  161.4644  134.3284 C   0  0  0  0  0  0  0  0  0  0  0  0
  185.8816  160.9430  134.5647 C   0  0  0  0  0  0  0  0  0  0  0  0
  185.2416  161.4913  135.8063 C   0  0  2  0  0  0  0  0  0  0  0  0
  184.7596  162.8879  135.4812 C   0  0  0  0  0  0  0  0  0  0  0  0
  186.2442  161.6448  136.9238 C   0  0  0  0  0  0  0  0  0  0  0  0
  185.8409  161.4595  138.1737 C   0  0  0  0  0  0  0  0  0  0  0  0
  184.4659  161.1129  138.6098 C   0  0  0  0  0  0  0  0  0  0  0  0
  183.5262  161.2547  137.4753 C   0  0  2  0  0  0  0  0  0  0  0  0
  182.0966  160.9202  137.7727 C   0  0  1  0  0  0  0  0  0  0  0  0
  181.8922  159.5672  138.3315 C   0  0  0  0  0  0  0  0  0  0  0  0
  181.6362  161.9453  138.8124 C   0  0  0  0  0  0  0  0  0  0  0  0
  180.2002  161.8272  139.1456 C   0  0  0  0  0  0  0  0  0  0  0  0
  179.2677  161.5471  138.0170 C   0  0  2  0  0  0  0  0  0  0  0  0
  178.4143  160.4517  138.3273 O   0  0  0  0  0  0  0  0  0  0  0  0
  179.8577  161.4010  136.6759 C   0  0  0  0  0  0  0  0  0  0  0  0
  179.1769  160.1957  135.9963 C   0  0  0  0  0  0  0  0  0  0  0  0
  179.3904  162.5806  135.7970 C   0  0  0  0  0  0  0  0  0  0  0  0
  181.3053  161.2345  136.5350 C   0  0  2  0  0  0  0  0  0  0  0  0
  181.7321  160.2417  135.4730 C   0  0  0  0  0  0  0  0  0  0  0  0
  183.1830  160.3530  135.1397 C   0  0  0  0  0  0  0  0  0  0  0  0
  184.1092  160.5854  136.2748 C   0  0  1  0  0  0  0  0  0  0  0  0
  184.7751  159.2578  136.6229 C   0  0  0  0  0  0  0  0  0  0  0  0
  188.4884  159.8942  135.8184 C   0  0  0  0  0  0  0  0  0  0  0  0
  189.8046  159.4659  135.8058 O   0  0  0  0  0  0  0  0  0  0  0  0
  187.6115  159.0519  136.1199 O   0  0  0  0  0  0  0  0  0  0  0  0
  1  2  1  0
  2  3  1  1
  2  4  1  0
  4  5  1  6
  4  6  1  0
  6  7  1  0
  7  8  1  0
  8  9  1  0
  9 10  1  0
 10 11  1  0
 11 12  1  6
 11 13  1  0
 13 14  2  0
 14 15  1  0
 16 15  1  1
 16 17  1  0
 17 18  1  1
 17 19  1  0
 19 20  1  0
 20 21  1  0
 21 22  1  1
 21 23  1  0
 23 24  1  0
 23 25  1  0
 23 26  1  0
 26 27  1  6
 27 28  1  0
 28 29  1  0
 29 30  1  1
  8 31  1  1
 31 32  1  0
 31 33  2  0
  8  1  1  0
 29 11  1  0
  1 13  1  6
 29 16  1  0
 26 17  1  0
M  END
$$$$
