
     RDKit          3D

 33 37  0  0  0  0  0  0  0  0999 V2000
  173.7934  162.1712  115.0965 C   0  0  2  0  0  0  0  0  0  0  0  0
  174.1233  162.9808  116.3009 C   0  0  1  0  0  0  0  0  0  0  0  0
  173.4483  164.3010  116.4176 C   0  0  0  0  0  0  0  0  0  0  0  0
  173.6911  162.1395  117.5147 C   0  0  2  0  0  0  0  0  0  0  0  0
  174.3413  162.6600  118.7769 C   0  0  0  0  0  0  0  0  0  0  0  0
  174.0633  160.7014  117.3360 C   0  0  0  0  0  0  0  0  0  0  0  0
  175.1800  160.5354  116.3494 C   0  0  0  0  0  0  0  0  0  0  0  0
  174.7815  161.0468  114.9604 C   0  0  2  0  0  0  0  0  0  0  0  0
  176.0387  161.5336  114.3198 C   0  0  0  0  0  0  0  0  0  0  0  0
  175.8449  162.1240  112.9528 C   0  0  0  0  0  0  0  0  0  0  0  0
  174.8120  163.2119  112.9138 C   0  0  2  0  0  0  0  0  0  0  0  0
  175.4605  164.4638  113.4620 C   0  0  0  0  0  0  0  0  0  0  0  0
  173.6522  162.9066  113.8299 C   0  0  0  0  0  0  0  0  0  0  0  0
  172.4386  163.3121  113.4808 C   0  0  0  0  0  0  0  0  0  0  0  0
  172.0842  164.0634  112.2517 C   0  0  0  0  0  0  0  0  0  0  0  0
  173.3139  164.5363  111.5775 C   0  0  2  0  0  0  0  0  0  0  0  0
  173.1027  165.3019  110.3073 C   0  0  1  0  0  0  0  0  0  0  0  0
  172.3054  164.5845  109.2902 C   0  0  0  0  0  0  0  0  0  0  0  0
  172.3446  166.5706  110.7065 C   0  0  0  0  0  0  0  0  0  0  0  0
  172.1429  167.5042  109.5774 C   0  0  0  0  0  0  0  0  0  0  0  0
  173.2806  167.6697  108.6289 C   0  0  2  0  0  0  0  0  0  0  0  0
  172.8439  167.5108  107.2841 O   0  0  0  0  0  0  0  0  0  0  0  0
  174.4969  166.8826  108.8917 C   0  0  0  0  0  0  0  0  0  0  0  0
  174.9845  166.3144  107.5435 C   0  0  0  0  0  0  0  0  0  0  0  0
  175.6395  167.8475  109.2737 C   0  0  0  0  0  0  0  0  0  0  0  0
  174.4526  165.7786  109.8520 C   0  0  2  0  0  0  0  0  0  0  0  0
  175.2423  164.5503  109.4479 C   0  0  0  0  0  0  0  0  0  0  0  0
  175.4412  163.6021  110.5836 C   0  0  0  0  0  0  0  0  0  0  0  0
  174.2880  163.4078  111.4962 C   0  0  1  0  0  0  0  0  0  0  0  0
  173.6123  162.0894  111.1322 C   0  0  0  0  0  0  0  0  0  0  0  0
  174.1451  159.9263  114.2751 C   0  0  0  0  0  0  0  0  0  0  0  0
  174.6082  158.6446  114.5172 O   0  0  0  0  0  0  0  0  0  0  0  0
  173.1933  160.0525  113.4707 O   0  0  0  0  0  0  0  0  0  0  0  0
  1  2  1  0
  2  3  1  6
  2  4  1  0
  4  5  1  1
  4  6  1  0
  6  7  1  0
  7  8  1  0
  8  9  1  0
  9 10  1  0
 10 11  1  0
 11 12  1  1
 11 13  1  0
 13 14  2  0
 14 15  1  0
 16 15  1  6
 16 17  1  0
 17 18  1  6
 17 19  1  0
 19 20  1  0
 20 21  1  0
 21 22  1  6
 21 23  1  0
 23 24  1  0
 23 25  1  0
 23 26  1  0
 26 27  1  6
 27 28  1  0
 28 29  1  0
 29 30  1  6
  8 31  1  6
 31 32  1  0
 31 33  2  0
  8  1  1  0
 29 11  1  0
  1 13  1  6
 29 16  1  0
 26 17  1  0
M  END
$$$$
