
     RDKit          3D

 33 37  0  0  0  0  0  0  0  0999 V2000
  164.6703  151.0424  127.5422 C   0  0  2  0  0  0  0  0  0  0  0  0
  164.3000  151.8182  126.3273 C   0  0  1  0  0  0  0  0  0  0  0  0
  164.3713  151.0933  125.0305 C   0  0  0  0  0  0  0  0  0  0  0  0
  162.8375  152.2536  126.5258 C   0  0  2  0  0  0  0  0  0  0  0  0
  162.4865  153.3755  125.5744 C   0  0  0  0  0  0  0  0  0  0  0  0
  162.5963  152.7151  127.9284 C   0  0  0  0  0  0  0  0  0  0  0  0
  163.8677  153.1418  128.5988 C   0  0  0  0  0  0  0  0  0  0  0  0
  164.8652  151.9822  128.6988 C   0  0  2  0  0  0  0  0  0  0  0  0
  166.2243  152.5970  128.6465 C   0  0  0  0  0  0  0  0  0  0  0  0
  167.3509  151.6048  128.6839 C   0  0  0  0  0  0  0  0  0  0  0  0
  167.2442  150.5408  127.6313 C   0  0  2  0  0  0  0  0  0  0  0  0
  167.7066  151.1537  126.3278 C   0  0  0  0  0  0  0  0  0  0  0  0
  165.8110  150.1224  127.4110 C   0  0  0  0  0  0  0  0  0  0  0  0
  165.5561  148.8613  127.0888 C   0  0  0  0  0  0  0  0  0  0  0  0
  166.5579  147.7820  126.9084 C   0  0  0  0  0  0  0  0  0  0  0  0
  167.9207  148.3584  126.8805 C   0  0  2  0  0  0  0  0  0  0  0  0
  169.0374  147.3733  126.7175 C   0  0  1  0  0  0  0  0  0  0  0  0
  169.0492  146.2946  127.7280 C   0  0  0  0  0  0  0  0  0  0  0  0
  168.8360  146.7393  125.3386 C   0  0  0  0  0  0  0  0  0  0  0  0
  169.9226  145.8083  124.9650 C   0  0  0  0  0  0  0  0  0  0  0  0
  171.3111  146.2153  125.3229 C   0  0  2  0  0  0  0  0  0  0  0  0
  171.9859  145.1636  126.0033 O   0  0  0  0  0  0  0  0  0  0  0  0
  171.4771  147.4986  126.0255 C   0  0  0  0  0  0  0  0  0  0  0  0
  172.5020  147.2810  127.1570 C   0  0  0  0  0  0  0  0  0  0  0  0
  172.2191  148.4814  125.0949 C   0  0  0  0  0  0  0  0  0  0  0  0
  170.3087  148.1653  126.6029 C   0  0  2  0  0  0  0  0  0  0  0  0
  170.5475  148.8159  127.9503 C   0  0  0  0  0  0  0  0  0  0  0  0
  169.4487  149.7506  128.3341 C   0  0  0  0  0  0  0  0  0  0  0  0
  168.0663  149.3167  128.0161 C   0  0  1  0  0  0  0  0  0  0  0  0
  167.4277  148.7910  129.2980 C   0  0  0  0  0  0  0  0  0  0  0  0
  164.5622  151.2835  129.9439 C   0  0  0  0  0  0  0  0  0  0  0  0
  163.8717  150.0853  129.8870 O   0  0  0  0  0  0  0  0  0  0  0  0
  164.8919  151.7051  131.0764 O   0  0  0  0  0  0  0  0  0  0  0  0
  1  2  1  0
  2  3  1  6
  2  4  1  0
  4  5  1  6
  4  6  1  0
  6  7  1  0
  7  8  1  0
  8  9  1  0
  9 10  1  0
 10 11  1  0
 11 12  1  6
 11 13  1  0
 13 14  2  0
 14 15  1  0
 16 15  1  1
 16 17  1  0
 17 18  1  1
 17 19  1  0
 19 20  1  0
 20 21  1  0
 21 22  1  1
 21 23  1  0
 23 24  1  0
 23 25  1  0
 23 26  1  0
 26 27  1  1
 27 28  1  0
 28 29  1  0
 29 30  1  1
  8 31  1  1
 31 32  1  0
 31 33  2  0
  8  1  1  0
 29 11  1  0
  1 13  1  6
 29 16  1  0
 26 17  1  0
M  END
$$$$
