
     RDKit          3D

 33 37  0  0  0  0  0  0  0  0999 V2000
  173.4917  162.5831  113.1504 C   0  0  2  0  0  0  0  0  0  0  0  0
  174.3525  161.3708  113.0844 C   0  0  1  0  0  0  0  0  0  0  0  0
  175.8216  161.5973  113.1363 C   0  0  0  0  0  0  0  0  0  0  0  0
  173.9805  160.5136  114.3069 C   0  0  2  0  0  0  0  0  0  0  0  0
  174.4746  159.0956  114.1281 C   0  0  0  0  0  0  0  0  0  0  0  0
  172.4995  160.4870  114.5183 C   0  0  0  0  0  0  0  0  0  0  0  0
  171.7532  160.8128  113.2594 C   0  0  0  0  0  0  0  0  0  0  0  0
  172.0857  162.2232  112.7595 C   0  0  2  0  0  0  0  0  0  0  0  0
  171.9537  162.1796  111.2734 C   0  0  0  0  0  0  0  0  0  0  0  0
  172.2898  163.4723  110.5871 C   0  0  0  0  0  0  0  0  0  0  0  0
  173.6435  164.0071  110.9519 C   0  0  2  0  0  0  0  0  0  0  0  0
  174.6638  163.2174  110.1620 C   0  0  0  0  0  0  0  0  0  0  0  0
  173.9612  163.7627  112.4069 C   0  0  0  0  0  0  0  0  0  0  0  0
  174.6950  164.6546  113.0590 C   0  0  0  0  0  0  0  0  0  0  0  0
  175.2626  165.9043  112.4959 C   0  0  0  0  0  0  0  0  0  0  0  0
  175.1211  165.9034  111.0228 C   0  0  2  0  0  0  0  0  0  0  0  0
  175.6425  167.1201  110.3213 C   0  0  1  0  0  0  0  0  0  0  0  0
  175.0699  168.3937  110.8059 C   0  0  0  0  0  0  0  0  0  0  0  0
  177.1505  167.1390  110.5847 C   0  0  0  0  0  0  0  0  0  0  0  0
  177.8498  168.2278  109.8689 C   0  0  0  0  0  0  0  0  0  0  0  0
  177.4060  168.5109  108.4745 C   0  0  2  0  0  0  0  0  0  0  0  0
  177.1493  169.8993  108.2984 O   0  0  0  0  0  0  0  0  0  0  0  0
  176.3058  167.6924  107.9382 C   0  0  0  0  0  0  0  0  0  0  0  0
  175.3449  168.6372  107.1884 C   0  0  0  0  0  0  0  0  0  0  0  0
  176.8547  166.8094  106.7974 C   0  0  0  0  0  0  0  0  0  0  0  0
  175.5052  166.8695  108.8465 C   0  0  2  0  0  0  0  0  0  0  0  0
  174.0219  166.8398  108.5390 C   0  0  0  0  0  0  0  0  0  0  0  0
  173.3114  165.7465  109.2660 C   0  0  0  0  0  0  0  0  0  0  0  0
  173.7273  165.5022  110.6688 C   0  0  1  0  0  0  0  0  0  0  0  0
  172.6928  166.1435  111.5884 C   0  0  0  0  0  0  0  0  0  0  0  0
  171.1538  163.1274  113.4258 C   0  0  0  0  0  0  0  0  0  0  0  0
  169.7942  162.9230  113.2659 O   0  0  0  0  0  0  0  0  0  0  0  0
  171.5110  164.0902  114.1431 O   0  0  0  0  0  0  0  0  0  0  0  0
  1  2  1  0
  2  3  1  1
  2  4  1  0
  4  5  1  6
  4  6  1  0
  6  7  1  0
  7  8  1  0
  8  9  1  0
  9 10  1  0
 10 11  1  0
 11 12  1  6
 11 13  1  0
 13 14  2  0
 14 15  1  0
 16 15  1  1
 16 17  1  0
 17 18  1  1
 17 19  1  0
 19 20  1  0
 20 21  1  0
 21 22  1  1
 21 23  1  0
 23 24  1  0
 23 25  1  0
 23 26  1  0
 26 27  1  6
 27 28  1  0
 28 29  1  0
 29 30  1  1
  8 31  1  1
 31 32  1  0
 31 33  2  0
  8  1  1  0
 29 11  1  0
  1 13  1  6
 29 16  1  0
 26 17  1  0
M  END
$$$$
