
     RDKit          3D

 33 37  0  0  0  0  0  0  0  0999 V2000
  133.6595  164.2088  152.8307 C   0  0  2  0  0  0  0  0  0  0  0  0
  134.6864  165.2341  153.1610 C   0  0  1  0  0  0  0  0  0  0  0  0
  135.5173  164.9756  154.3673 C   0  0  0  0  0  0  0  0  0  0  0  0
  135.6402  165.2899  151.9547 C   0  0  2  0  0  0  0  0  0  0  0  0
  136.4615  166.5592  151.9888 C   0  0  0  0  0  0  0  0  0  0  0  0
  134.8842  165.2371  150.6647 C   0  0  0  0  0  0  0  0  0  0  0  0
  133.4610  165.6763  150.8369 C   0  0  0  0  0  0  0  0  0  0  0  0
  132.7062  164.7629  151.8094 C   0  0  2  0  0  0  0  0  0  0  0  0
  131.6762  165.6184  152.4691 C   0  0  0  0  0  0  0  0  0  0  0  0
  130.8548  164.9055  153.5045 C   0  0  0  0  0  0  0  0  0  0  0  0
  131.6808  164.2209  154.5537 C   0  0  2  0  0  0  0  0  0  0  0  0
  132.1440  165.2859  155.5232 C   0  0  0  0  0  0  0  0  0  0  0  0
  132.9331  163.6180  153.9656 C   0  0  0  0  0  0  0  0  0  0  0  0
  133.4071  162.4947  154.4877 C   0  0  0  0  0  0  0  0  0  0  0  0
  132.8270  161.7437  155.6280 C   0  0  0  0  0  0  0  0  0  0  0  0
  131.7805  162.5565  156.2870 C   0  0  2  0  0  0  0  0  0  0  0  0
  131.0966  161.9104  157.4527 C   0  0  1  0  0  0  0  0  0  0  0  0
  130.4913  160.5962  157.1507 C   0  0  0  0  0  0  0  0  0  0  0  0
  132.1821  161.7083  158.5132 C   0  0  0  0  0  0  0  0  0  0  0  0
  131.6551  161.1718  159.7865 C   0  0  0  0  0  0  0  0  0  0  0  0
  130.3477  161.7127  160.2555 C   0  0  2  0  0  0  0  0  0  0  0  0
  129.4535  160.6563  160.5854 O   0  0  0  0  0  0  0  0  0  0  0  0
  129.6922  162.7213  159.4064 C   0  0  0  0  0  0  0  0  0  0  0  0
  128.1922  162.3699  159.3391 C   0  0  0  0  0  0  0  0  0  0  0  0
  129.6801  164.0699  160.1572 C   0  0  0  0  0  0  0  0  0  0  0  0
  130.1635  162.9328  158.0366 C   0  0  2  0  0  0  0  0  0  0  0  0
  129.0693  163.1674  157.0153 C   0  0  0  0  0  0  0  0  0  0  0  0
  129.5988  163.7018  155.7259 C   0  0  0  0  0  0  0  0  0  0  0  0
  130.8771  163.1247  155.2429 C   0  0  1  0  0  0  0  0  0  0  0  0
  130.5564  162.1129  154.1471 C   0  0  0  0  0  0  0  0  0  0  0  0
  132.1651  163.6676  151.0108 C   0  0  0  0  0  0  0  0  0  0  0  0
  131.2887  163.9610  149.9805 O   0  0  0  0  0  0  0  0  0  0  0  0
  132.4473  162.4621  151.2013 O   0  0  0  0  0  0  0  0  0  0  0  0
  1  2  1  0
  2  3  1  1
  2  4  1  0
  4  5  1  6
  4  6  1  0
  6  7  1  0
  7  8  1  0
  8  9  1  0
  9 10  1  0
 10 11  1  0
 11 12  1  1
 11 13  1  0
 13 14  2  0
 14 15  1  0
 16 15  1  6
 16 17  1  0
 17 18  1  6
 17 19  1  0
 19 20  1  0
 20 21  1  0
 21 22  1  6
 21 23  1  0
 23 24  1  0
 23 25  1  0
 23 26  1  0
 26 27  1  6
 27 28  1  0
 28 29  1  0
 29 30  1  6
  8 31  1  6
 31 32  1  0
 31 33  2  0
  8  1  1  0
 29 11  1  0
  1 13  1  1
 29 16  1  0
 26 17  1  0
M  END
$$$$
