
     RDKit          3D

 33 37  0  0  0  0  0  0  0  0999 V2000
  166.0452  148.5902  131.5143 C   0  0  2  0  0  0  0  0  0  0  0  0
  164.7476  147.9354  131.8342 C   0  0  1  0  0  0  0  0  0  0  0  0
  164.1537  147.0847  130.7683 C   0  0  0  0  0  0  0  0  0  0  0  0
  165.0136  147.0263  133.0470 C   0  0  2  0  0  0  0  0  0  0  0  0
  163.7119  146.6375  133.7114 C   0  0  0  0  0  0  0  0  0  0  0  0
  165.8858  147.7084  134.0531 C   0  0  0  0  0  0  0  0  0  0  0  0
  165.8337  149.2001  133.9125 C   0  0  0  0  0  0  0  0  0  0  0  0
  166.3383  149.6516  132.5373 C   0  0  2  0  0  0  0  0  0  0  0  0
  165.5968  150.9058  132.2132 C   0  0  0  0  0  0  0  0  0  0  0  0
  165.9228  151.4834  130.8660 C   0  0  0  0  0  0  0  0  0  0  0  0
  165.7603  150.5034  129.7414 C   0  0  2  0  0  0  0  0  0  0  0  0
  164.2804  150.4071  129.4428 C   0  0  0  0  0  0  0  0  0  0  0  0
  166.1955  149.1169  130.1487 C   0  0  0  0  0  0  0  0  0  0  0  0
  166.7487  148.3277  129.2375 C   0  0  0  0  0  0  0  0  0  0  0  0
  166.9892  148.6658  127.8132 C   0  0  0  0  0  0  0  0  0  0  0  0
  166.2880  149.9225  127.4680 C   0  0  2  0  0  0  0  0  0  0  0  0
  166.4578  150.3921  126.0556 C   0  0  1  0  0  0  0  0  0  0  0  0
  167.8651  150.5573  125.6347 C   0  0  0  0  0  0  0  0  0  0  0  0
  165.8160  149.3143  125.1780 C   0  0  0  0  0  0  0  0  0  0  0  0
  165.7994  149.6703  123.7427 C   0  0  0  0  0  0  0  0  0  0  0  0
  165.4883  151.0881  123.4040 C   0  0  2  0  0  0  0  0  0  0  0  0
  166.4585  151.6177  122.5082 O   0  0  0  0  0  0  0  0  0  0  0  0
  165.2376  152.0092  124.5250 C   0  0  0  0  0  0  0  0  0  0  0  0
  165.9798  153.3262  124.2206 C   0  0  0  0  0  0  0  0  0  0  0  0
  163.7587  152.4490  124.4848 C   0  0  0  0  0  0  0  0  0  0  0  0
  165.5866  151.6044  125.8879 C   0  0  2  0  0  0  0  0  0  0  0  0
  166.1850  152.7011  126.7450 C   0  0  0  0  0  0  0  0  0  0  0  0
  166.2104  152.3419  128.1937 C   0  0  0  0  0  0  0  0  0  0  0  0
  166.5665  150.9403  128.5242 C   0  0  1  0  0  0  0  0  0  0  0  0
  168.0229  150.9155  128.9773 C   0  0  0  0  0  0  0  0  0  0  0  0
  167.7833  149.8153  132.6615 C   0  0  0  0  0  0  0  0  0  0  0  0
  168.6078  148.7583  132.3170 O   0  0  0  0  0  0  0  0  0  0  0  0
  168.3324  150.8662  133.0656 O   0  0  0  0  0  0  0  0  0  0  0  0
  1  2  1  0
  2  3  1  6
  2  4  1  0
  4  5  1  1
  4  6  1  0
  6  7  1  0
  7  8  1  0
  8  9  1  0
  9 10  1  0
 10 11  1  0
 11 12  1  6
 11 13  1  0
 13 14  2  0
 14 15  1  0
 16 15  1  1
 16 17  1  0
 17 18  1  6
 17 19  1  0
 19 20  1  0
 20 21  1  0
 21 22  1  1
 21 23  1  0
 23 24  1  0
 23 25  1  0
 23 26  1  0
 26 27  1  6
 27 28  1  0
 28 29  1  0
 29 30  1  1
  8 31  1  1
 31 32  1  0
 31 33  2  0
  8  1  1  0
 29 11  1  0
  1 13  1  6
 29 16  1  0
 26 17  1  0
M  END
$$$$
