
     RDKit          3D

 33 37  0  0  0  0  0  0  0  0999 V2000
  128.6928  146.4621  135.7162 C   0  0  2  0  0  0  0  0  0  0  0  0
  128.5951  146.5995  137.1949 C   0  0  1  0  0  0  0  0  0  0  0  0
  129.5121  145.7507  138.0017 C   0  0  0  0  0  0  0  0  0  0  0  0
  128.9348  148.0664  137.5126 C   0  0  2  0  0  0  0  0  0  0  0  0
  128.4722  148.4258  138.9069 C   0  0  0  0  0  0  0  0  0  0  0  0
  128.2887  148.9953  136.5338 C   0  0  0  0  0  0  0  0  0  0  0  0
  127.1026  148.3638  135.8688 C   0  0  0  0  0  0  0  0  0  0  0  0
  127.5046  147.1183  135.0708 C   0  0  2  0  0  0  0  0  0  0  0  0
  126.3245  146.2049  135.1028 C   0  0  0  0  0  0  0  0  0  0  0  0
  126.5421  144.8928  134.4057 C   0  0  0  0  0  0  0  0  0  0  0  0
  127.7567  144.1552  134.8878 C   0  0  2  0  0  0  0  0  0  0  0  0
  127.3898  143.5001  136.2011 C   0  0  0  0  0  0  0  0  0  0  0  0
  128.8922  145.1006  135.1953 C   0  0  0  0  0  0  0  0  0  0  0  0
  130.1367  144.6947  134.9822 C   0  0  0  0  0  0  0  0  0  0  0  0
  130.5504  143.3676  134.4640 C   0  0  0  0  0  0  0  0  0  0  0  0
  129.3927  142.4457  134.4572 C   0  0  2  0  0  0  0  0  0  0  0  0
  129.6662  141.0663  133.9409 C   0  0  1  0  0  0  0  0  0  0  0  0
  130.2508  141.0297  132.5838 C   0  0  0  0  0  0  0  0  0  0  0  0
  130.6721  140.4483  134.9154 C   0  0  0  0  0  0  0  0  0  0  0  0
  130.9764  139.0329  134.6135 C   0  0  0  0  0  0  0  0  0  0  0  0
  129.8344  138.1740  134.1897 C   0  0  2  0  0  0  0  0  0  0  0  0
  130.1505  137.4663  132.9965 O   0  0  0  0  0  0  0  0  0  0  0  0
  128.5101  138.8112  134.0974 C   0  0  0  0  0  0  0  0  0  0  0  0
  127.8431  138.3135  132.7991 C   0  0  0  0  0  0  0  0  0  0  0  0
  127.5948  138.2131  135.1869 C   0  0  0  0  0  0  0  0  0  0  0  0
  128.4047  140.2711  134.1227 C   0  0  2  0  0  0  0  0  0  0  0  0
  127.3750  140.8521  133.1753 C   0  0  0  0  0  0  0  0  0  0  0  0
  127.0711  142.2831  133.4724 C   0  0  0  0  0  0  0  0  0  0  0  0
  128.2207  143.1420  133.8484 C   0  0  1  0  0  0  0  0  0  0  0  0
  128.6131  143.9695  132.6283 C   0  0  0  0  0  0  0  0  0  0  0  0
  127.8759  147.5841  133.7384 C   0  0  0  0  0  0  0  0  0  0  0  0
  126.9017  148.1447  132.9307 O   0  0  0  0  0  0  0  0  0  0  0  0
  129.0364  147.5077  133.2729 O   0  0  0  0  0  0  0  0  0  0  0  0
  1  2  1  0
  2  3  1  1
  2  4  1  0
  4  5  1  1
  4  6  1  0
  6  7  1  0
  7  8  1  0
  8  9  1  0
  9 10  1  0
 10 11  1  0
 11 12  1  1
 11 13  1  0
 13 14  2  0
 14 15  1  0
 16 15  1  6
 16 17  1  0
 17 18  1  6
 17 19  1  0
 19 20  1  0
 20 21  1  0
 21 22  1  6
 21 23  1  0
 23 24  1  0
 23 25  1  0
 23 26  1  0
 26 27  1  6
 27 28  1  0
 28 29  1  0
 29 30  1  6
  8 31  1  6
 31 32  1  0
 31 33  2  0
  8  1  1  0
 29 11  1  0
  1 13  1  1
 29 16  1  0
 26 17  1  0
M  END
$$$$
