
     RDKit          3D

 33 37  0  0  0  0  0  0  0  0999 V2000
  114.6082  147.3630  157.1615 C   0  0  2  0  0  0  0  0  0  0  0  0
  113.4231  146.4645  157.1050 C   0  0  1  0  0  0  0  0  0  0  0  0
  112.5119  146.4943  158.2802 C   0  0  0  0  0  0  0  0  0  0  0  0
  112.6036  146.9122  155.8819 C   0  0  2  0  0  0  0  0  0  0  0  0
  111.6194  145.8357  155.4826 C   0  0  0  0  0  0  0  0  0  0  0  0
  113.4920  147.2124  154.7161 C   0  0  0  0  0  0  0  0  0  0  0  0
  114.8166  146.5199  154.8347 C   0  0  0  0  0  0  0  0  0  0  0  0
  115.5807  146.9812  156.0810 C   0  0  2  0  0  0  0  0  0  0  0  0
  116.4101  145.8184  156.5144 C   0  0  0  0  0  0  0  0  0  0  0  0
  117.2060  146.0615  157.7644 C   0  0  0  0  0  0  0  0  0  0  0  0
  116.3737  146.5380  158.9185 C   0  0  2  0  0  0  0  0  0  0  0  0
  115.6711  145.3276  159.4926 C   0  0  0  0  0  0  0  0  0  0  0  0
  115.2836  147.4774  158.4637 C   0  0  0  0  0  0  0  0  0  0  0  0
  114.9130  148.4636  159.2694 C   0  0  0  0  0  0  0  0  0  0  0  0
  115.4654  148.7512  160.6160 C   0  0  0  0  0  0  0  0  0  0  0  0
  116.3169  147.6262  161.0625 C   0  0  2  0  0  0  0  0  0  0  0  0
  116.9545  147.7908  162.4080 C   0  0  1  0  0  0  0  0  0  0  0  0
  117.7603  149.0215  162.5527 C   0  0  0  0  0  0  0  0  0  0  0  0
  115.8002  147.8502  163.4119 C   0  0  0  0  0  0  0  0  0  0  0  0
  116.2571  147.9055  164.8173 C   0  0  0  0  0  0  0  0  0  0  0  0
  117.4225  147.0502  165.1808 C   0  0  2  0  0  0  0  0  0  0  0  0
  118.4112  147.8091  165.8670 O   0  0  0  0  0  0  0  0  0  0  0  0
  118.0219  146.2373  164.1093 C   0  0  0  0  0  0  0  0  0  0  0  0
  119.5543  146.3480  164.2424 C   0  0  0  0  0  0  0  0  0  0  0  0
  117.7723  144.7460  164.4190 C   0  0  0  0  0  0  0  0  0  0  0  0
  117.6739  146.5078  162.7132 C   0  0  2  0  0  0  0  0  0  0  0  0
  118.8284  146.4050  161.7374 C   0  0  0  0  0  0  0  0  0  0  0  0
  118.3710  146.3568  160.3172 C   0  0  0  0  0  0  0  0  0  0  0  0
  117.2405  147.2457  159.9530 C   0  0  1  0  0  0  0  0  0  0  0  0
  117.8091  148.4651  159.2339 C   0  0  0  0  0  0  0  0  0  0  0  0
  116.3461  148.1585  155.6833 C   0  0  0  0  0  0  0  0  0  0  0  0
  117.3036  148.0299  154.6922 O   0  0  0  0  0  0  0  0  0  0  0  0
  116.1894  149.2938  156.1890 O   0  0  0  0  0  0  0  0  0  0  0  0
  1  2  1  0
  2  3  1  1
  2  4  1  0
  4  5  1  6
  4  6  1  0
  6  7  1  0
  7  8  1  0
  8  9  1  0
  9 10  1  0
 10 11  1  0
 11 12  1  1
 11 13  1  0
 13 14  2  0
 14 15  1  0
 16 15  1  6
 16 17  1  0
 17 18  1  6
 17 19  1  0
 19 20  1  0
 20 21  1  0
 21 22  1  6
 21 23  1  0
 23 24  1  0
 23 25  1  0
 23 26  1  0
 26 27  1  6
 27 28  1  0
 28 29  1  0
 29 30  1  6
  8 31  1  6
 31 32  1  0
 31 33  2  0
  8  1  1  0
 29 11  1  0
  1 13  1  1
 29 16  1  0
 26 17  1  0
M  END
$$$$
