
     RDKit          3D

 33 37  0  0  0  0  0  0  0  0999 V2000
  165.1909  157.3638  128.9738 C   0  0  2  0  0  0  0  0  0  0  0  0
  165.4844  158.7900  128.6661 C   0  0  1  0  0  0  0  0  0  0  0  0
  164.7277  159.3940  127.5370 C   0  0  0  0  0  0  0  0  0  0  0  0
  165.1235  159.5851  129.9332 C   0  0  2  0  0  0  0  0  0  0  0  0
  165.7560  160.9582  129.8933 C   0  0  0  0  0  0  0  0  0  0  0  0
  165.5847  158.8753  131.1668 C   0  0  0  0  0  0  0  0  0  0  0  0
  166.6964  157.9136  130.8710 C   0  0  0  0  0  0  0  0  0  0  0  0
  166.2471  156.8205  129.8948 C   0  0  2  0  0  0  0  0  0  0  0  0
  167.4617  156.4295  129.1204 C   0  0  0  0  0  0  0  0  0  0  0  0
  167.2119  155.3894  128.0665 C   0  0  0  0  0  0  0  0  0  0  0  0
  166.1110  155.7564  127.1152 C   0  0  2  0  0  0  0  0  0  0  0  0
  166.6851  156.7490  126.1285 C   0  0  0  0  0  0  0  0  0  0  0  0
  164.9856  156.4725  127.8213 C   0  0  0  0  0  0  0  0  0  0  0  0
  163.7439  156.2902  127.3923 C   0  0  0  0  0  0  0  0  0  0  0  0
  163.3254  155.4370  126.2531 C   0  0  0  0  0  0  0  0  0  0  0  0
  164.5129  155.0093  125.4805 C   0  0  2  0  0  0  0  0  0  0  0  0
  164.2359  154.1254  124.3032 C   0  0  1  0  0  0  0  0  0  0  0  0
  163.4726  152.9019  124.6276 C   0  0  0  0  0  0  0  0  0  0  0  0
  163.4034  154.9697  123.3348 C   0  0  0  0  0  0  0  0  0  0  0  0
  163.1269  154.2804  122.0559 C   0  0  0  0  0  0  0  0  0  0  0  0
  164.2388  153.4807  121.4677 C   0  0  2  0  0  0  0  0  0  0  0  0
  163.7950  152.1720  121.1288 O   0  0  0  0  0  0  0  0  0  0  0  0
  165.5065  153.4376  122.2153 C   0  0  0  0  0  0  0  0  0  0  0  0
  166.0112  151.9806  122.1929 C   0  0  0  0  0  0  0  0  0  0  0  0
  166.5899  154.1729  121.3980 C   0  0  0  0  0  0  0  0  0  0  0  0
  165.5461  153.9029  123.6028 C   0  0  2  0  0  0  0  0  0  0  0  0
  166.4075  153.0699  124.5300 C   0  0  0  0  0  0  0  0  0  0  0  0
  166.6822  153.7596  125.8251 C   0  0  0  0  0  0  0  0  0  0  0  0
  165.5563  154.5150  126.4270 C   0  0  1  0  0  0  0  0  0  0  0  0
  164.9617  153.6669  127.5471 C   0  0  0  0  0  0  0  0  0  0  0  0
  165.6747  155.7516  130.7072 C   0  0  0  0  0  0  0  0  0  0  0  0
  166.4655  155.1458  131.6682 O   0  0  0  0  0  0  0  0  0  0  0  0
  164.4969  155.3419  130.5886 O   0  0  0  0  0  0  0  0  0  0  0  0
  1  2  1  0
  2  3  1  6
  2  4  1  0
  4  5  1  6
  4  6  1  0
  6  7  1  0
  7  8  1  0
  8  9  1  0
  9 10  1  0
 10 11  1  0
 11 12  1  6
 11 13  1  0
 13 14  2  0
 14 15  1  0
 16 15  1  1
 16 17  1  0
 17 18  1  1
 17 19  1  0
 19 20  1  0
 20 21  1  0
 21 22  1  1
 21 23  1  0
 23 24  1  0
 23 25  1  0
 23 26  1  0
 26 27  1  1
 27 28  1  0
 28 29  1  0
 29 30  1  1
  8 31  1  1
 31 32  1  0
 31 33  2  0
  8  1  1  0
 29 11  1  0
  1 13  1  6
 29 16  1  0
 26 17  1  0
M  END
$$$$
