
     RDKit          3D

 33 37  0  0  0  0  0  0  0  0999 V2000
  133.3028  176.6409  158.7526 C   0  0  2  0  0  0  0  0  0  0  0  0
  133.2723  177.9816  159.3979 C   0  0  1  0  0  0  0  0  0  0  0  0
  134.3099  178.9526  158.9587 C   0  0  0  0  0  0  0  0  0  0  0  0
  131.9024  178.5922  159.0535 C   0  0  2  0  0  0  0  0  0  0  0  0
  131.5922  179.7489  159.9770 C   0  0  0  0  0  0  0  0  0  0  0  0
  130.8121  177.5743  159.1695 C   0  0  0  0  0  0  0  0  0  0  0  0
  131.2052  176.4395  160.0670 C   0  0  0  0  0  0  0  0  0  0  0  0
  132.4280  175.6921  159.5230 C   0  0  2  0  0  0  0  0  0  0  0  0
  133.1561  175.1634  160.7139 C   0  0  0  0  0  0  0  0  0  0  0  0
  134.4254  174.4315  160.3848 C   0  0  0  0  0  0  0  0  0  0  0  0
  135.3712  175.2292  159.5359 C   0  0  2  0  0  0  0  0  0  0  0  0
  136.0685  176.2140  160.4483 C   0  0  0  0  0  0  0  0  0  0  0  0
  134.6323  176.0577  158.5135 C   0  0  0  0  0  0  0  0  0  0  0  0
  135.1995  176.2711  157.3337 C   0  0  0  0  0  0  0  0  0  0  0  0
  136.5271  175.7745  156.8956 C   0  0  0  0  0  0  0  0  0  0  0  0
  137.2637  175.2172  158.0519 C   0  0  2  0  0  0  0  0  0  0  0  0
  138.6221  174.6634  157.7485 C   0  0  1  0  0  0  0  0  0  0  0  0
  138.6353  173.6285  156.6932 C   0  0  0  0  0  0  0  0  0  0  0  0
  139.4590  175.8519  157.2680 C   0  0  0  0  0  0  0  0  0  0  0  0
  140.8748  175.5019  157.0229 C   0  0  0  0  0  0  0  0  0  0  0  0
  141.5180  174.5753  157.9973 C   0  0  2  0  0  0  0  0  0  0  0  0
  142.1661  173.5034  157.3224 O   0  0  0  0  0  0  0  0  0  0  0  0
  140.6864  174.0820  159.1078 C   0  0  0  0  0  0  0  0  0  0  0  0
  140.9734  172.5757  159.2712 C   0  0  0  0  0  0  0  0  0  0  0  0
  141.2282  174.6647  160.4303 C   0  0  0  0  0  0  0  0  0  0  0  0
  139.2339  174.2575  159.0592 C   0  0  2  0  0  0  0  0  0  0  0  0
  138.4321  173.0803  159.5758 C   0  0  0  0  0  0  0  0  0  0  0  0
  137.0006  173.4281  159.8171 C   0  0  0  0  0  0  0  0  0  0  0  0
  136.3547  174.3134  158.8173 C   0  0  1  0  0  0  0  0  0  0  0  0
  135.4987  173.4464  157.8993 C   0  0  0  0  0  0  0  0  0  0  0  0
  131.9163  174.6667  158.6193 C   0  0  0  0  0  0  0  0  0  0  0  0
  131.1386  173.6461  159.1383 O   0  0  0  0  0  0  0  0  0  0  0  0
  132.1393  174.6512  157.3868 O   0  0  0  0  0  0  0  0  0  0  0  0
  1  2  1  0
  2  3  1  6
  2  4  1  0
  4  5  1  1
  4  6  1  0
  6  7  1  0
  7  8  1  0
  8  9  1  0
  9 10  1  0
 10 11  1  0
 11 12  1  1
 11 13  1  0
 13 14  2  0
 14 15  1  0
 16 15  1  6
 16 17  1  0
 17 18  1  6
 17 19  1  0
 19 20  1  0
 20 21  1  0
 21 22  1  6
 21 23  1  0
 23 24  1  0
 23 25  1  0
 23 26  1  0
 26 27  1  6
 27 28  1  0
 28 29  1  0
 29 30  1  6
  8 31  1  6
 31 32  1  0
 31 33  2  0
  8  1  1  0
 29 11  1  0
  1 13  1  1
 29 16  1  0
 26 17  1  0
M  END
$$$$
