
     RDKit          3D

 33 37  0  0  0  0  0  0  0  0999 V2000
  176.4846  164.9190  108.2983 C   0  0  2  0  0  0  0  0  0  0  0  0
  175.9753  164.6436  106.9273 C   0  0  1  0  0  0  0  0  0  0  0  0
  174.5251  164.8817  106.6986 C   0  0  0  0  0  0  0  0  0  0  0  0
  176.7456  165.5864  105.9863 C   0  0  2  0  0  0  0  0  0  0  0  0
  176.6222  165.1193  104.5533 C   0  0  0  0  0  0  0  0  0  0  0  0
  178.1951  165.6496  106.3517 C   0  0  0  0  0  0  0  0  0  0  0  0
  178.6243  164.4426  107.1307 C   0  0  0  0  0  0  0  0  0  0  0  0
  177.8575  164.3270  108.4530 C   0  0  2  0  0  0  0  0  0  0  0  0
  177.7642  162.8680  108.7536 C   0  0  0  0  0  0  0  0  0  0  0  0
  176.9962  162.5444  110.0028 C   0  0  0  0  0  0  0  0  0  0  0  0
  175.6228  163.1482  110.0322 C   0  0  2  0  0  0  0  0  0  0  0  0
  174.7379  162.2887  109.1567 C   0  0  0  0  0  0  0  0  0  0  0  0
  175.6107  164.5253  109.4146 C   0  0  0  0  0  0  0  0  0  0  0  0
  174.7776  165.4358  109.9003 C   0  0  0  0  0  0  0  0  0  0  0  0
  173.8197  165.2422  111.0165 C   0  0  0  0  0  0  0  0  0  0  0  0
  173.7262  163.8050  111.3572 C   0  0  2  0  0  0  0  0  0  0  0  0
  172.7997  163.4655  112.4842 C   0  0  1  0  0  0  0  0  0  0  0  0
  173.0833  164.1864  113.7431 C   0  0  0  0  0  0  0  0  0  0  0  0
  171.4000  163.8619  112.0071 C   0  0  0  0  0  0  0  0  0  0  0  0
  170.3356  163.4942  112.9656 C   0  0  0  0  0  0  0  0  0  0  0  0
  170.4670  162.1735  113.6439 C   0  0  2  0  0  0  0  0  0  0  0  0
  170.3172  162.3121  115.0520 O   0  0  0  0  0  0  0  0  0  0  0  0
  171.6474  161.3591  113.3102 C   0  0  0  0  0  0  0  0  0  0  0  0
  172.1961  160.7728  114.6268 C   0  0  0  0  0  0  0  0  0  0  0  0
  171.1814  160.0950  112.5570 C   0  0  0  0  0  0  0  0  0  0  0  0
  172.7678  161.9673  112.5907 C   0  0  2  0  0  0  0  0  0  0  0  0
  174.1400  161.5279  113.0594 C   0  0  0  0  0  0  0  0  0  0  0  0
  175.2179  161.9044  112.0978 C   0  0  0  0  0  0  0  0  0  0  0  0
  175.1041  163.2399  111.4622 C   0  0  1  0  0  0  0  0  0  0  0  0
  176.0620  164.1881  112.1767 C   0  0  0  0  0  0  0  0  0  0  0  0
  178.6089  165.1025  109.4348 C   0  0  0  0  0  0  0  0  0  0  0  0
  179.9521  164.8246  109.6199 O   0  0  0  0  0  0  0  0  0  0  0  0
  178.1086  166.0164  110.1303 O   0  0  0  0  0  0  0  0  0  0  0  0
  1  2  1  0
  2  3  1  1
  2  4  1  0
  4  5  1  6
  4  6  1  0
  6  7  1  0
  7  8  1  0
  8  9  1  0
  9 10  1  0
 10 11  1  0
 11 12  1  6
 11 13  1  0
 13 14  2  0
 14 15  1  0
 16 15  1  1
 16 17  1  0
 17 18  1  1
 17 19  1  0
 19 20  1  0
 20 21  1  0
 21 22  1  1
 21 23  1  0
 23 24  1  0
 23 25  1  0
 23 26  1  0
 26 27  1  1
 27 28  1  0
 28 29  1  0
 29 30  1  1
  8 31  1  1
 31 32  1  0
 31 33  2  0
  8  1  1  0
 29 11  1  0
  1 13  1  1
 29 16  1  0
 26 17  1  0
M  END
$$$$
