
     RDKit          3D

 33 37  0  0  0  0  0  0  0  0999 V2000
  167.8905  150.8141  130.2235 C   0  0  2  0  0  0  0  0  0  0  0  0
  168.8409  150.6069  131.3499 C   0  0  1  0  0  0  0  0  0  0  0  0
  170.2871  150.7453  131.0311 C   0  0  0  0  0  0  0  0  0  0  0  0
  168.5015  151.6793  132.4000 C   0  0  2  0  0  0  0  0  0  0  0  0
  169.1048  151.3174  133.7387 C   0  0  0  0  0  0  0  0  0  0  0  0
  167.0216  151.8295  132.5607 C   0  0  0  0  0  0  0  0  0  0  0  0
  166.2868  150.6035  132.1081 C   0  0  0  0  0  0  0  0  0  0  0  0
  166.5262  150.3237  130.6202 C   0  0  2  0  0  0  0  0  0  0  0  0
  166.4375  148.8428  130.4558 C   0  0  0  0  0  0  0  0  0  0  0  0
  166.6942  148.3619  129.0566 C   0  0  0  0  0  0  0  0  0  0  0  0
  167.9940  148.8496  128.4872 C   0  0  2  0  0  0  0  0  0  0  0  0
  169.0911  147.9932  129.0800 C   0  0  0  0  0  0  0  0  0  0  0  0
  168.2902  150.2654  128.9181 C   0  0  0  0  0  0  0  0  0  0  0  0
  168.9378  151.0654  128.0816 C   0  0  0  0  0  0  0  0  0  0  0  0
  169.4253  150.7088  126.7266 C   0  0  0  0  0  0  0  0  0  0  0  0
  169.3235  149.2466  126.5227 C   0  0  2  0  0  0  0  0  0  0  0  0
  169.7710  148.7466  125.1833 C   0  0  1  0  0  0  0  0  0  0  0  0
  169.0922  149.3872  124.0371 C   0  0  0  0  0  0  0  0  0  0  0  0
  171.2658  149.0658  125.0974 C   0  0  0  0  0  0  0  0  0  0  0  0
  171.9007  148.5400  123.8696 C   0  0  0  0  0  0  0  0  0  0  0  0
  171.4743  147.1851  123.4181 C   0  0  2  0  0  0  0  0  0  0  0  0
  171.1194  147.2005  122.0404 O   0  0  0  0  0  0  0  0  0  0  0  0
  170.4529  146.4965  124.2248 C   0  0  0  0  0  0  0  0  0  0  0  0
  169.4445  145.8548  123.2505 C   0  0  0  0  0  0  0  0  0  0  0  0
  171.0964  145.2621  124.8915 C   0  0  0  0  0  0  0  0  0  0  0  0
  169.6921  147.2470  125.2253 C   0  0  2  0  0  0  0  0  0  0  0  0
  168.2238  146.8836  125.3137 C   0  0  0  0  0  0  0  0  0  0  0  0
  167.5779  147.4194  126.5483 C   0  0  0  0  0  0  0  0  0  0  0  0
  167.9734  148.7871  126.9647 C   0  0  1  0  0  0  0  0  0  0  0  0
  166.8698  149.7501  126.5382 C   0  0  0  0  0  0  0  0  0  0  0  0
  165.5120  151.0776  129.8901 C   0  0  0  0  0  0  0  0  0  0  0  0
  164.2279  150.5672  129.8107 O   0  0  0  0  0  0  0  0  0  0  0  0
  165.7327  152.1725  129.3230 O   0  0  0  0  0  0  0  0  0  0  0  0
  1  2  1  0
  2  3  1  6
  2  4  1  0
  4  5  1  1
  4  6  1  0
  6  7  1  0
  7  8  1  0
  8  9  1  0
  9 10  1  0
 10 11  1  0
 11 12  1  1
 11 13  1  0
 13 14  2  0
 14 15  1  0
 16 15  1  6
 16 17  1  0
 17 18  1  6
 17 19  1  0
 19 20  1  0
 20 21  1  0
 21 22  1  6
 21 23  1  0
 23 24  1  0
 23 25  1  0
 23 26  1  0
 26 27  1  6
 27 28  1  0
 28 29  1  0
 29 30  1  6
  8 31  1  6
 31 32  1  0
 31 33  2  0
  8  1  1  0
 29 11  1  0
  1 13  1  6
 29 16  1  0
 26 17  1  0
M  END
$$$$
