
     RDKit          3D

 33 37  0  0  0  0  0  0  0  0999 V2000
  165.4299  158.8897  126.6962 C   0  0  2  0  0  0  0  0  0  0  0  0
  165.7297  159.6806  125.4717 C   0  0  1  0  0  0  0  0  0  0  0  0
  164.9506  159.3359  124.2525 C   0  0  0  0  0  0  0  0  0  0  0  0
  165.4092  161.1453  125.8180 C   0  0  2  0  0  0  0  0  0  0  0  0
  166.0542  162.0781  124.8176 C   0  0  0  0  0  0  0  0  0  0  0  0
  165.8946  161.4955  127.1892 C   0  0  0  0  0  0  0  0  0  0  0  0
  166.9886  160.5759  127.6425 C   0  0  0  0  0  0  0  0  0  0  0  0
  166.5037  159.1239  127.7214 C   0  0  2  0  0  0  0  0  0  0  0  0
  167.6943  158.2714  127.4320 C   0  0  0  0  0  0  0  0  0  0  0  0
  167.4072  156.7975  127.4162 C   0  0  0  0  0  0  0  0  0  0  0  0
  166.2862  156.4178  126.4939 C   0  0  2  0  0  0  0  0  0  0  0  0
  166.8450  156.4163  125.0881 C   0  0  0  0  0  0  0  0  0  0  0  0
  165.1864  157.4513  126.5053 C   0  0  0  0  0  0  0  0  0  0  0  0
  163.9324  157.0514  126.3421 C   0  0  0  0  0  0  0  0  0  0  0  0
  163.4765  155.6547  126.1361 C   0  0  0  0  0  0  0  0  0  0  0  0
  164.6397  154.7780  125.8740 C   0  0  2  0  0  0  0  0  0  0  0  0
  164.3239  153.3293  125.6611 C   0  0  1  0  0  0  0  0  0  0  0  0
  163.5569  152.7060  126.7602 C   0  0  0  0  0  0  0  0  0  0  0  0
  163.4755  153.2703  124.3881 C   0  0  0  0  0  0  0  0  0  0  0  0
  163.1597  151.8885  123.9660 C   0  0  0  0  0  0  0  0  0  0  0  0
  164.2481  150.8788  124.0974 C   0  0  2  0  0  0  0  0  0  0  0  0
  163.7828  149.7210  124.7811 O   0  0  0  0  0  0  0  0  0  0  0  0
  165.5340  151.3416  124.6454 C   0  0  0  0  0  0  0  0  0  0  0  0
  166.0233  150.2769  125.6480 C   0  0  0  0  0  0  0  0  0  0  0  0
  166.6035  151.2633  123.5353 C   0  0  0  0  0  0  0  0  0  0  0  0
  165.6136  152.6462  125.3047 C   0  0  2  0  0  0  0  0  0  0  0  0
  166.4899  152.6835  126.5401 C   0  0  0  0  0  0  0  0  0  0  0  0
  166.8044  154.0770  126.9735 C   0  0  0  0  0  0  0  0  0  0  0  0
  165.7018  155.0653  126.8832 C   0  0  1  0  0  0  0  0  0  0  0  0
  165.1274  155.2638  128.2824 C   0  0  0  0  0  0  0  0  0  0  0  0
  165.9415  158.9487  129.0569 C   0  0  0  0  0  0  0  0  0  0  0  0
  166.7713  159.0914  130.1554 O   0  0  0  0  0  0  0  0  0  0  0  0
  164.7391  158.6737  129.2751 O   0  0  0  0  0  0  0  0  0  0  0  0
  1  2  1  0
  2  3  1  6
  2  4  1  0
  4  5  1  6
  4  6  1  0
  6  7  1  0
  7  8  1  0
  8  9  1  0
  9 10  1  0
 10 11  1  0
 11 12  1  6
 11 13  1  0
 13 14  2  0
 14 15  1  0
 16 15  1  1
 16 17  1  0
 17 18  1  1
 17 19  1  0
 19 20  1  0
 20 21  1  0
 21 22  1  1
 21 23  1  0
 23 24  1  0
 23 25  1  0
 23 26  1  0
 26 27  1  1
 27 28  1  0
 28 29  1  0
 29 30  1  1
  8 31  1  1
 31 32  1  0
 31 33  2  0
  8  1  1  0
 29 11  1  0
  1 13  1  6
 29 16  1  0
 26 17  1  0
M  END
$$$$
