
     RDKit          3D

 33 37  0  0  0  0  0  0  0  0999 V2000
  162.9949  146.2966  129.7876 C   0  0  2  0  0  0  0  0  0  0  0  0
  162.8945  144.9858  129.0900 C   0  0  1  0  0  0  0  0  0  0  0  0
  164.1369  144.4796  128.4476 C   0  0  0  0  0  0  0  0  0  0  0  0
  162.4856  143.9599  130.1617 C   0  0  2  0  0  0  0  0  0  0  0  0
  161.9556  142.7009  129.5129 C   0  0  0  0  0  0  0  0  0  0  0  0
  161.4343  144.5161  131.0694 C   0  0  0  0  0  0  0  0  0  0  0  0
  160.6851  145.6441  130.4257 C   0  0  0  0  0  0  0  0  0  0  0  0
  161.6158  146.8139  130.0866 C   0  0  2  0  0  0  0  0  0  0  0  0
  161.0340  147.4722  128.8800 C   0  0  0  0  0  0  0  0  0  0  0  0
  161.8400  148.6275  128.3597 C   0  0  0  0  0  0  0  0  0  0  0  0
  163.2761  148.2820  128.0954 C   0  0  2  0  0  0  0  0  0  0  0  0
  163.3220  147.5392  126.7783 C   0  0  0  0  0  0  0  0  0  0  0  0
  163.8153  147.3274  129.1325 C   0  0  0  0  0  0  0  0  0  0  0  0
  165.0913  147.4190  129.4827 C   0  0  0  0  0  0  0  0  0  0  0  0
  166.0818  148.3838  128.9451 C   0  0  0  0  0  0  0  0  0  0  0  0
  165.5222  149.0743  127.7618 C   0  0  2  0  0  0  0  0  0  0  0  0
  166.4161  150.0929  127.1235 C   0  0  1  0  0  0  0  0  0  0  0  0
  166.8962  151.1438  128.0454 C   0  0  0  0  0  0  0  0  0  0  0  0
  167.6292  149.3163  126.6049 C   0  0  0  0  0  0  0  0  0  0  0  0
  168.5751  150.1606  125.8435 C   0  0  0  0  0  0  0  0  0  0  0  0
  167.9837  151.1766  124.9272 C   0  0  2  0  0  0  0  0  0  0  0  0
  168.5632  152.4566  125.1513 O   0  0  0  0  0  0  0  0  0  0  0  0
  166.5147  151.2583  124.8698 C   0  0  0  0  0  0  0  0  0  0  0  0
  166.1306  152.7517  124.8753 C   0  0  0  0  0  0  0  0  0  0  0  0
  166.0467  150.8041  123.4708 C   0  0  0  0  0  0  0  0  0  0  0  0
  165.7108  150.5863  125.8922 C   0  0  2  0  0  0  0  0  0  0  0  0
  164.4960  151.3620  126.3593 C   0  0  0  0  0  0  0  0  0  0  0  0
  163.5427  150.5146  127.1348 C   0  0  0  0  0  0  0  0  0  0  0  0
  164.1390  149.5380  128.0789 C   0  0  1  0  0  0  0  0  0  0  0  0
  164.0343  150.1155  129.4870 C   0  0  0  0  0  0  0  0  0  0  0  0
  161.6655  147.6594  131.2752 C   0  0  0  0  0  0  0  0  0  0  0  0
  162.8923  147.9146  131.8632 O   0  0  0  0  0  0  0  0  0  0  0  0
  160.6545  148.1761  131.8044 O   0  0  0  0  0  0  0  0  0  0  0  0
  1  2  1  0
  2  3  1  1
  2  4  1  0
  4  5  1  6
  4  6  1  0
  6  7  1  0
  7  8  1  0
  8  9  1  0
  9 10  1  0
 10 11  1  0
 11 12  1  6
 11 13  1  0
 13 14  2  0
 14 15  1  0
 16 15  1  1
 16 17  1  0
 17 18  1  1
 17 19  1  0
 19 20  1  0
 20 21  1  0
 21 22  1  1
 21 23  1  0
 23 24  1  0
 23 25  1  0
 23 26  1  0
 26 27  1  1
 27 28  1  0
 28 29  1  0
 29 30  1  1
  8 31  1  1
 31 32  1  0
 31 33  2  0
  8  1  1  0
 29 11  1  0
  1 13  1  6
 29 16  1  0
 26 17  1  0
M  END
$$$$
