
     RDKit          3D

 37 41  0  0  0  0  0  0  0  0999 V2000
  147.6129  166.0621  133.0937 C   0  0  0  0  0  0  0  0  0  0  0  0
  147.3132  167.5247  132.8047 C   0  0  2  0  0  0  0  0  0  0  0  0
  146.6859  167.5723  131.4696 C   0  0  0  0  0  0  0  0  0  0  0  0
  147.6790  168.0573  130.4333 C   0  0  2  0  0  0  0  0  0  0  0  0
  147.0628  168.4279  129.1761 C   0  0  0  0  0  0  0  0  0  0  0  0
  147.0940  169.7405  128.7499 C   0  0  0  0  0  0  0  0  0  0  0  0
  146.5379  170.1235  127.5470 C   0  0  0  0  0  0  0  0  0  0  0  0
  145.9241  169.2066  126.7150 C   0  0  0  0  0  0  0  0  0  0  0  0
  145.8935  167.8965  127.1415 C   0  0  0  0  0  0  0  0  0  0  0  0
  146.4533  167.5087  128.3531 C   0  0  0  0  0  0  0  0  0  0  0  0
  145.2194  169.7052  125.1858 S   0  0  0  0  0  6  0  0  0  0  0  0
  144.6683  171.3784  125.3421 C   0  0  0  0  0  0  0  0  0  0  0  0
  144.1212  168.7714  124.8042 O   0  0  0  0  0  0  0  0  0  0  0  0
  146.3020  169.5986  124.1330 O   0  0  0  0  0  0  0  0  0  0  0  0
  148.9982  167.5177  130.5795 C   0  0  0  0  0  0  0  0  0  0  0  0
  149.6542  166.8696  129.6873 C   0  0  0  0  0  0  0  0  0  0  0  0
  149.1250  166.5681  128.3951 C   0  0  0  0  0  0  0  0  0  0  0  0
  150.0933  167.0150  127.2955 C   0  0  0  0  0  0  0  0  0  0  0  0
  151.3322  166.1876  127.5749 C   0  0  0  0  0  0  0  0  0  0  0  0
  151.8528  165.5578  126.6655 O   0  0  0  0  0  0  0  0  0  0  0  0
  151.8496  166.1905  128.9588 C   0  0  0  0  0  0  0  0  0  0  0  0
  151.0680  166.5132  129.9516 C   0  0  0  0  0  0  0  0  0  0  0  0
  151.6233  166.6328  131.3421 C   0  0  0  0  0  0  0  0  0  0  0  0
  150.9739  167.9485  131.9190 C   0  0  0  0  0  0  0  0  0  0  0  0
  149.5588  167.6101  132.0027 C   0  0  1  0  0  0  0  0  0  0  0  0
  148.6063  168.3708  132.7931 C   0  0  2  0  0  0  0  0  0  0  0  0
  148.8948  168.4041  134.2908 C   0  0  0  0  0  0  0  0  0  0  0  0
  147.5596  168.9091  134.7943 C   0  0  0  0  0  0  0  0  0  0  0  0
  146.5828  168.0585  133.9704 C   0  0  2  0  0  0  0  0  0  0  0  0
  146.1865  167.0302  134.8655 O   0  0  0  0  0  0  0  0  0  0  0  0
  145.3188  168.8185  133.6821 C   0  0  0  0  0  0  0  0  0  0  0  0
  145.4788  169.9803  133.0028 F   0  0  0  0  0  0  0  0  0  0  0  0
  144.4549  167.9207  133.0468 F   0  0  0  0  0  0  0  0  0  0  0  0
  144.6406  169.0723  135.0351 C   0  0  0  0  0  0  0  0  0  0  0  0
  145.5194  169.8380  135.7847 F   0  0  0  0  0  0  0  0  0  0  0  0
  144.4915  167.8766  135.7149 F   0  0  0  0  0  0  0  0  0  0  0  0
  143.4615  169.7388  134.9265 F   0  0  0  0  0  0  0  0  0  0  0  0
  2  1  1  1
  2  3  1  0
  3  4  1  0
  4  5  1  6
  5  6  2  0
  6  7  1  0
  7  8  2  0
  8  9  1  0
  9 10  2  0
  8 11  1  0
 11 12  1  0
 11 13  2  0
 11 14  2  0
  4 15  1  0
 15 16  2  0
 16 17  1  0
 17 18  1  0
 18 19  1  0
 19 20  2  0
 19 21  1  0
 21 22  2  0
 22 23  1  0
 23 24  1  0
 25 24  1  6
 25 26  1  0
 26 27  1  1
 27 28  1  0
 28 29  1  0
 29 30  1  1
 29 31  1  0
 31 32  1  0
 31 33  1  0
 31 34  1  0
 34 35  1  0
 34 36  1  0
 34 37  1  0
 26  2  1  0
 29  2  1  0
 10  5  1  0
 25 15  1  0
 22 16  1  0
M  END
$$$$
