
     RDKit          3D

 37 41  0  0  0  0  0  0  0  0999 V2000
  203.5317  133.6113  132.4596 C   0  0  0  0  0  0  0  0  0  0  0  0
  204.1061  134.2630  133.7077 C   0  0  2  0  0  0  0  0  0  0  0  0
  205.5508  134.4421  133.4650 C   0  0  0  0  0  0  0  0  0  0  0  0
  206.3490  133.3949  134.2142 C   0  0  2  0  0  0  0  0  0  0  0  0
  207.7652  133.6909  134.2812 C   0  0  0  0  0  0  0  0  0  0  0  0
  208.3405  134.0551  135.4821 C   0  0  0  0  0  0  0  0  0  0  0  0
  209.6902  134.3207  135.5861 C   0  0  0  0  0  0  0  0  0  0  0  0
  210.5262  134.2331  134.4892 C   0  0  0  0  0  0  0  0  0  0  0  0
  209.9508  133.8694  133.2910 C   0  0  0  0  0  0  0  0  0  0  0  0
  208.5912  133.6014  133.1842 C   0  0  0  0  0  0  0  0  0  0  0  0
  212.2429  134.5733  134.6329 S   0  0  0  0  0  6  0  0  0  0  0  0
  212.6242  135.9694  133.6164 C   0  0  0  0  0  0  0  0  0  0  0  0
  213.0330  133.3629  134.2672 O   0  0  0  0  0  0  0  0  0  0  0  0
  212.5219  134.8838  136.0880 O   0  0  0  0  0  0  0  0  0  0  0  0
  205.7805  132.0802  134.1794 C   0  0  0  0  0  0  0  0  0  0  0  0
  206.3600  131.0157  133.7582 C   0  0  0  0  0  0  0  0  0  0  0  0
  207.6854  131.0075  133.2255 C   0  0  0  0  0  0  0  0  0  0  0  0
  208.5448  129.9514  133.9273 C   0  0  0  0  0  0  0  0  0  0  0  0
  207.8272  128.6565  133.6019 C   0  0  0  0  0  0  0  0  0  0  0  0
  208.4616  127.7143  133.1495 O   0  0  0  0  0  0  0  0  0  0  0  0
  206.3726  128.6069  133.8559 C   0  0  0  0  0  0  0  0  0  0  0  0
  205.6815  129.7101  133.9339 C   0  0  0  0  0  0  0  0  0  0  0  0
  204.2281  129.6660  134.3106 C   0  0  0  0  0  0  0  0  0  0  0  0
  204.0477  130.8442  135.3425 C   0  0  0  0  0  0  0  0  0  0  0  0
  204.2905  132.0323  134.5342 C   0  0  1  0  0  0  0  0  0  0  0  0
  203.9032  133.3689  134.9516 C   0  0  2  0  0  0  0  0  0  0  0  0
  202.4051  133.5688  135.1597 C   0  0  0  0  0  0  0  0  0  0  0  0
  202.3537  135.0814  135.1892 C   0  0  0  0  0  0  0  0  0  0  0  0
  203.2685  135.4397  134.0098 C   0  0  2  0  0  0  0  0  0  0  0  0
  202.3657  135.7341  132.9545 O   0  0  0  0  0  0  0  0  0  0  0  0
  203.9911  136.7328  134.2629 C   0  0  0  0  0  0  0  0  0  0  0  0
  204.7203  136.7798  135.4042 F   0  0  0  0  0  0  0  0  0  0  0  0
  204.7441  136.9953  133.1140 F   0  0  0  0  0  0  0  0  0  0  0  0
  202.9274  137.8391  134.2549 C   0  0  0  0  0  0  0  0  0  0  0  0
  203.5958  139.0368  134.4533 F   0  0  0  0  0  0  0  0  0  0  0  0
  202.0822  137.6828  135.3389 F   0  0  0  0  0  0  0  0  0  0  0  0
  202.2378  137.9104  133.0863 F   0  0  0  0  0  0  0  0  0  0  0  0
  2  1  1  6
  2  3  1  0
  3  4  1  0
  4  5  1  6
  5  6  2  0
  6  7  1  0
  7  8  2  0
  8  9  1  0
  9 10  2  0
  8 11  1  0
 11 12  1  0
 11 13  2  0
 11 14  2  0
  4 15  1  0
 15 16  2  0
 16 17  1  0
 17 18  1  0
 18 19  1  0
 19 20  2  0
 19 21  1  0
 21 22  2  0
 22 23  1  0
 23 24  1  0
 25 24  1  1
 25 26  1  0
 26 27  1  6
 27 28  1  0
 28 29  1  0
 29 30  1  6
 29 31  1  0
 31 32  1  0
 31 33  1  0
 31 34  1  0
 34 35  1  0
 34 36  1  0
 34 37  1  0
 26  2  1  0
 29  2  1  0
 10  5  1  0
 25 15  1  0
 22 16  1  0
M  END
$$$$
