
     RDKit          3D

 37 41  0  0  0  0  0  0  0  0999 V2000
  194.2191  161.0279  131.6407 C   0  0  0  0  0  0  0  0  0  0  0  0
  192.9866  161.9052  131.4867 C   0  0  2  0  0  0  0  0  0  0  0  0
  192.5487  162.2628  132.8500 C   0  0  0  0  0  0  0  0  0  0  0  0
  191.3387  161.4441  133.2510 C   0  0  2  0  0  0  0  0  0  0  0  0
  190.6674  161.9504  134.4303 C   0  0  0  0  0  0  0  0  0  0  0  0
  189.2977  162.1228  134.4270 C   0  0  0  0  0  0  0  0  0  0  0  0
  188.6240  162.5803  135.5404 C   0  0  0  0  0  0  0  0  0  0  0  0
  189.2937  162.8864  136.7099 C   0  0  0  0  0  0  0  0  0  0  0  0
  190.6609  162.7140  136.7119 C   0  0  0  0  0  0  0  0  0  0  0  0
  191.3415  162.2531  135.5911 C   0  0  0  0  0  0  0  0  0  0  0  0
  188.4260  163.4682  138.1214 S   0  0  0  0  0  6  0  0  0  0  0  0
  189.0154  165.0891  138.5123 C   0  0  0  0  0  0  0  0  0  0  0  0
  188.5914  162.5084  139.2505 O   0  0  0  0  0  0  0  0  0  0  0  0
  186.9558  163.5097  137.7630 O   0  0  0  0  0  0  0  0  0  0  0  0
  191.4016  160.0661  132.8637 C   0  0  0  0  0  0  0  0  0  0  0  0
  191.3029  159.0544  133.6467 C   0  0  0  0  0  0  0  0  0  0  0  0
  191.1383  159.1751  135.0605 C   0  0  0  0  0  0  0  0  0  0  0  0
  189.9389  158.3507  135.5386 C   0  0  0  0  0  0  0  0  0  0  0  0
  190.3265  156.9345  135.1620 C   0  0  0  0  0  0  0  0  0  0  0  0
  190.2509  156.0471  135.9995 O   0  0  0  0  0  0  0  0  0  0  0  0
  190.7825  156.7040  133.7757 C   0  0  0  0  0  0  0  0  0  0  0  0
  191.2372  157.6951  133.0604 C   0  0  0  0  0  0  0  0  0  0  0  0
  191.5875  157.4851  131.6149 C   0  0  0  0  0  0  0  0  0  0  0  0
  190.9910  158.7420  130.8734 C   0  0  0  0  0  0  0  0  0  0  0  0
  191.7874  159.8443  131.3973 C   0  0  1  0  0  0  0  0  0  0  0  0
  191.8475  161.1508  130.7647 C   0  0  2  0  0  0  0  0  0  0  0  0
  192.4082  161.1531  129.3458 C   0  0  0  0  0  0  0  0  0  0  0  0
  192.6768  162.6338  129.1826 C   0  0  0  0  0  0  0  0  0  0  0  0
  193.3297  162.9745  130.5295 C   0  0  2  0  0  0  0  0  0  0  0  0
  194.7190  163.0014  130.2385 O   0  0  0  0  0  0  0  0  0  0  0  0
  193.0019  164.3808  130.9458 C   0  0  0  0  0  0  0  0  0  0  0  0
  191.9404  164.5102  131.7783 F   0  0  0  0  0  0  0  0  0  0  0  0
  194.1816  164.9236  131.4650 F   0  0  0  0  0  0  0  0  0  0  0  0
  192.7772  165.1798  129.6550 C   0  0  0  0  0  0  0  0  0  0  0  0
  191.4925  165.6952  129.7230 F   0  0  0  0  0  0  0  0  0  0  0  0
  192.7948  164.3254  128.5671 F   0  0  0  0  0  0  0  0  0  0  0  0
  193.6537  166.2066  129.5014 F   0  0  0  0  0  0  0  0  0  0  0  0
  2  1  1  1
  2  3  1  0
  3  4  1  0
  4  5  1  1
  5  6  2  0
  6  7  1  0
  7  8  2  0
  8  9  1  0
  9 10  2  0
  8 11  1  0
 11 12  1  0
 11 13  2  0
 11 14  2  0
  4 15  1  0
 15 16  2  0
 16 17  1  0
 17 18  1  0
 18 19  1  0
 19 20  2  0
 19 21  1  0
 21 22  2  0
 22 23  1  0
 23 24  1  0
 25 24  1  6
 25 26  1  0
 26 27  1  6
 27 28  1  0
 28 29  1  0
 29 30  1  6
 29 31  1  0
 31 32  1  0
 31 33  1  0
 31 34  1  0
 34 35  1  0
 34 36  1  0
 34 37  1  0
 26  2  1  0
 29  2  1  0
 10  5  1  0
 25 15  1  0
 22 16  1  0
M  END
$$$$
