
     RDKit          3D

 37 41  0  0  0  0  0  0  0  0999 V2000
  182.0233  177.5714  141.4517 C   0  0  0  0  0  0  0  0  0  0  0  0
  183.1948  176.6019  141.4615 C   0  0  2  0  0  0  0  0  0  0  0  0
  183.9670  176.8587  140.2303 C   0  0  0  0  0  0  0  0  0  0  0  0
  183.6935  175.7841  139.1980 C   0  0  2  0  0  0  0  0  0  0  0  0
  184.6372  175.7890  138.0994 C   0  0  0  0  0  0  0  0  0  0  0  0
  185.6842  174.8895  138.0818 C   0  0  0  0  0  0  0  0  0  0  0  0
  186.5870  174.8512  137.0395 C   0  0  0  0  0  0  0  0  0  0  0  0
  186.4812  175.7142  135.9654 C   0  0  0  0  0  0  0  0  0  0  0  0
  185.4357  176.6118  135.9840 C   0  0  0  0  0  0  0  0  0  0  0  0
  184.5251  176.6519  137.0333 C   0  0  0  0  0  0  0  0  0  0  0  0
  187.6361  175.6568  134.6438 S   0  0  0  0  0  6  0  0  0  0  0  0
  186.7410  175.5635  133.1215 C   0  0  0  0  0  0  0  0  0  0  0  0
  188.5686  174.5088  134.8338 O   0  0  0  0  0  0  0  0  0  0  0  0
  188.4537  176.9294  134.7022 O   0  0  0  0  0  0  0  0  0  0  0  0
  182.3196  175.3884  139.1053 C   0  0  0  0  0  0  0  0  0  0  0  0
  181.5938  175.4151  138.0475 C   0  0  0  0  0  0  0  0  0  0  0  0
  182.0708  175.8848  136.7856 C   0  0  0  0  0  0  0  0  0  0  0  0
  181.8057  174.8505  135.6872 C   0  0  0  0  0  0  0  0  0  0  0  0
  180.2941  174.7383  135.6820 C   0  0  0  0  0  0  0  0  0  0  0  0
  179.6873  174.8343  134.6249 O   0  0  0  0  0  0  0  0  0  0  0  0
  179.6279  174.5146  136.9816 C   0  0  0  0  0  0  0  0  0  0  0  0
  180.2346  174.8266  138.0930 C   0  0  0  0  0  0  0  0  0  0  0  0
  179.6084  174.4890  139.4159 C   0  0  0  0  0  0  0  0  0  0  0  0
  180.7937  173.9165  140.2837 C   0  0  0  0  0  0  0  0  0  0  0  0
  181.6664  175.0710  140.4548 C   0  0  1  0  0  0  0  0  0  0  0  0
  182.7092  175.1349  141.4644 C   0  0  2  0  0  0  0  0  0  0  0  0
  182.2162  175.0392  142.9050 C   0  0  0  0  0  0  0  0  0  0  0  0
  183.4557  175.5200  143.6287 C   0  0  0  0  0  0  0  0  0  0  0  0
  183.8561  176.7307  142.7744 C   0  0  2  0  0  0  0  0  0  0  0  0
  183.3675  177.8434  143.5085 O   0  0  0  0  0  0  0  0  0  0  0  0
  185.3481  176.9103  142.7615 C   0  0  0  0  0  0  0  0  0  0  0  0
  186.0465  175.9428  142.1190 F   0  0  0  0  0  0  0  0  0  0  0  0
  185.5867  178.1926  142.2569 F   0  0  0  0  0  0  0  0  0  0  0  0
  185.7906  177.0137  144.2274 C   0  0  0  0  0  0  0  0  0  0  0  0
  185.7004  178.3514  144.5780 F   0  0  0  0  0  0  0  0  0  0  0  0
  187.1270  176.6735  144.3374 F   0  0  0  0  0  0  0  0  0  0  0  0
  185.0157  176.2857  145.0733 F   0  0  0  0  0  0  0  0  0  0  0  0
  2  1  1  1
  2  3  1  0
  3  4  1  0
  4  5  1  6
  5  6  2  0
  6  7  1  0
  7  8  2  0
  8  9  1  0
  9 10  2  0
  8 11  1  0
 11 12  1  0
 11 13  2  0
 11 14  2  0
  4 15  1  0
 15 16  2  0
 16 17  1  0
 17 18  1  0
 18 19  1  0
 19 20  2  0
 19 21  1  0
 21 22  2  0
 22 23  1  0
 23 24  1  0
 25 24  1  6
 25 26  1  0
 26 27  1  1
 27 28  1  0
 28 29  1  0
 29 30  1  1
 29 31  1  0
 31 32  1  0
 31 33  1  0
 31 34  1  0
 34 35  1  0
 34 36  1  0
 34 37  1  0
 26  2  1  0
 29  2  1  0
 10  5  1  0
 25 15  1  0
 22 16  1  0
M  END
$$$$
