
     RDKit          3D

 37 41  0  0  0  0  0  0  0  0999 V2000
  191.6004  159.8851  130.3366 C   0  0  0  0  0  0  0  0  0  0  0  0
  191.4644  161.3237  129.8629 C   0  0  2  0  0  0  0  0  0  0  0  0
  192.7835  161.9581  130.0526 C   0  0  0  0  0  0  0  0  0  0  0  0
  192.7712  162.8537  131.2745 C   0  0  2  0  0  0  0  0  0  0  0  0
  193.9121  163.7430  131.3467 C   0  0  0  0  0  0  0  0  0  0  0  0
  195.1877  163.2258  131.4513 C   0  0  0  0  0  0  0  0  0  0  0  0
  196.2977  164.0435  131.4983 C   0  0  0  0  0  0  0  0  0  0  0  0
  196.1794  165.4192  131.4426 C   0  0  0  0  0  0  0  0  0  0  0  0
  194.9055  165.9344  131.3382 C   0  0  0  0  0  0  0  0  0  0  0  0
  193.7859  165.1121  131.2906 C   0  0  0  0  0  0  0  0  0  0  0  0
  197.5993  166.4507  131.5033 S   0  0  0  0  0  6  0  0  0  0  0  0
  197.4469  167.5320  132.8945 C   0  0  0  0  0  0  0  0  0  0  0  0
  197.7470  167.1879  130.2156 O   0  0  0  0  0  0  0  0  0  0  0  0
  198.8059  165.5502  131.6601 O   0  0  0  0  0  0  0  0  0  0  0  0
  192.0773  162.3068  132.4023 C   0  0  0  0  0  0  0  0  0  0  0  0
  192.5649  162.1226  133.5748 C   0  0  0  0  0  0  0  0  0  0  0  0
  193.9195  162.4252  133.9128 C   0  0  0  0  0  0  0  0  0  0  0  0
  193.9812  163.3148  135.1583 C   0  0  0  0  0  0  0  0  0  0  0  0
  193.3413  162.4507  136.2267 C   0  0  0  0  0  0  0  0  0  0  0  0
  193.9150  162.2905  137.2944 O   0  0  0  0  0  0  0  0  0  0  0  0
  192.0340  161.8398  135.9093 C   0  0  0  0  0  0  0  0  0  0  0  0
  191.6642  161.6876  134.6680 C   0  0  0  0  0  0  0  0  0  0  0  0
  190.2881  161.1784  134.3469 C   0  0  0  0  0  0  0  0  0  0  0  0
  189.7859  162.1006  133.1710 C   0  0  0  0  0  0  0  0  0  0  0  0
  190.6840  161.7586  132.0754 C   0  0  1  0  0  0  0  0  0  0  0  0
  190.4053  162.0885  130.6882 C   0  0  2  0  0  0  0  0  0  0  0  0
  189.1404  161.4541  130.1180 C   0  0  0  0  0  0  0  0  0  0  0  0
  189.3868  161.6817  128.6420 C   0  0  0  0  0  0  0  0  0  0  0  0
  190.8640  161.2840  128.5156 C   0  0  2  0  0  0  0  0  0  0  0  0
  190.8191  159.9648  127.9927 O   0  0  0  0  0  0  0  0  0  0  0  0
  191.5493  162.0915  127.4495 C   0  0  0  0  0  0  0  0  0  0  0  0
  191.7505  163.3984  127.7465 F   0  0  0  0  0  0  0  0  0  0  0  0
  192.7279  161.4082  127.1335 F   0  0  0  0  0  0  0  0  0  0  0  0
  190.7011  161.9503  126.1783 C   0  0  0  0  0  0  0  0  0  0  0  0
  190.7799  160.6219  125.7915 F   0  0  0  0  0  0  0  0  0  0  0  0
  191.2684  162.6867  125.1537 F   0  0  0  0  0  0  0  0  0  0  0  0
  189.3953  162.2751  126.3670 F   0  0  0  0  0  0  0  0  0  0  0  0
  2  1  1  1
  2  3  1  0
  3  4  1  0
  4  5  1  1
  5  6  2  0
  6  7  1  0
  7  8  2  0
  8  9  1  0
  9 10  2  0
  8 11  1  0
 11 12  1  0
 11 13  2  0
 11 14  2  0
  4 15  1  0
 15 16  2  0
 16 17  1  0
 17 18  1  0
 18 19  1  0
 19 20  2  0
 19 21  1  0
 21 22  2  0
 22 23  1  0
 23 24  1  0
 25 24  1  1
 25 26  1  0
 26 27  1  6
 27 28  1  0
 28 29  1  0
 29 30  1  6
 29 31  1  0
 31 32  1  0
 31 33  1  0
 31 34  1  0
 34 35  1  0
 34 36  1  0
 34 37  1  0
 26  2  1  0
 29  2  1  0
 10  5  1  0
 25 15  1  0
 22 16  1  0
M  END
$$$$
