
     RDKit          3D

 37 41  0  0  0  0  0  0  0  0999 V2000
  204.6935  171.1672  152.4206 C   0  0  0  0  0  0  0  0  0  0  0  0
  204.6800  169.9119  151.5624 C   0  0  2  0  0  0  0  0  0  0  0  0
  203.3824  169.2503  151.8009 C   0  0  0  0  0  0  0  0  0  0  0  0
  203.5558  168.0558  152.7166 C   0  0  2  0  0  0  0  0  0  0  0  0
  202.4019  167.1809  152.7446 C   0  0  0  0  0  0  0  0  0  0  0  0
  202.5635  165.8170  152.6059 C   0  0  0  0  0  0  0  0  0  0  0  0
  201.4889  164.9533  152.6516 C   0  0  0  0  0  0  0  0  0  0  0  0
  200.2010  165.4182  152.8388 C   0  0  0  0  0  0  0  0  0  0  0  0
  200.0409  166.7799  152.9771 C   0  0  0  0  0  0  0  0  0  0  0  0
  201.1224  167.6517  152.9313 C   0  0  0  0  0  0  0  0  0  0  0  0
  198.8403  164.3097  152.8953 S   0  0  0  0  0  6  0  0  0  0  0  0
  197.3461  165.2553  152.8687 C   0  0  0  0  0  0  0  0  0  0  0  0
  198.9465  163.4360  154.0990 O   0  0  0  0  0  0  0  0  0  0  0  0
  198.9290  163.4221  151.6722 O   0  0  0  0  0  0  0  0  0  0  0  0
  204.4534  168.2747  153.8117 C   0  0  0  0  0  0  0  0  0  0  0  0
  204.1775  168.1328  155.0567 C   0  0  0  0  0  0  0  0  0  0  0  0
  202.8854  167.7501  155.5309 C   0  0  0  0  0  0  0  0  0  0  0  0
  202.9901  166.5550  156.4834 C   0  0  0  0  0  0  0  0  0  0  0  0
  203.8397  167.0953  157.6165 C   0  0  0  0  0  0  0  0  0  0  0  0
  203.4604  166.9590  158.7708 O   0  0  0  0  0  0  0  0  0  0  0  0
  205.1033  167.7691  157.2527 C   0  0  0  0  0  0  0  0  0  0  0  0
  205.2676  168.2534  156.0531 C   0  0  0  0  0  0  0  0  0  0  0  0
  206.5936  168.8303  155.6465 C   0  0  0  0  0  0  0  0  0  0  0  0
  206.8480  168.2629  154.1978 C   0  0  0  0  0  0  0  0  0  0  0  0
  205.7970  168.8907  153.4071 C   0  0  1  0  0  0  0  0  0  0  0  0
  205.8244  168.9509  151.9557 C   0  0  2  0  0  0  0  0  0  0  0  0
  207.0052  169.7160  151.3660 C   0  0  0  0  0  0  0  0  0  0  0  0
  206.5054  169.8991  149.9490 C   0  0  0  0  0  0  0  0  0  0  0  0
  205.0484  170.3167  150.1921 C   0  0  2  0  0  0  0  0  0  0  0  0
  205.0683  171.7284  150.0425 O   0  0  0  0  0  0  0  0  0  0  0  0
  204.1572  169.8302  149.0843 C   0  0  0  0  0  0  0  0  0  0  0  0
  203.6291  168.5946  149.2605 F   0  0  0  0  0  0  0  0  0  0  0  0
  203.1908  170.8225  148.8909 F   0  0  0  0  0  0  0  0  0  0  0  0
  204.9892  169.8840  147.7958 C   0  0  0  0  0  0  0  0  0  0  0  0
  206.0067  168.9540  147.9386 F   0  0  0  0  0  0  0  0  0  0  0  0
  205.6046  171.1182  147.6877 F   0  0  0  0  0  0  0  0  0  0  0  0
  204.2719  169.5811  146.6822 F   0  0  0  0  0  0  0  0  0  0  0  0
  2  1  1  1
  2  3  1  0
  3  4  1  0
  4  5  1  1
  5  6  2  0
  6  7  1  0
  7  8  2  0
  8  9  1  0
  9 10  2  0
  8 11  1  0
 11 12  1  0
 11 13  2  0
 11 14  2  0
  4 15  1  0
 15 16  2  0
 16 17  1  0
 17 18  1  0
 18 19  1  0
 19 20  2  0
 19 21  1  0
 21 22  2  0
 22 23  1  0
 23 24  1  0
 25 24  1  6
 25 26  1  0
 26 27  1  1
 27 28  1  0
 28 29  1  0
 29 30  1  1
 29 31  1  0
 31 32  1  0
 31 33  1  0
 31 34  1  0
 34 35  1  0
 34 36  1  0
 34 37  1  0
 26  2  1  0
 29  2  1  0
 10  5  1  0
 25 15  1  0
 22 16  1  0
M  END
$$$$
