
     RDKit          3D

 37 41  0  0  0  0  0  0  0  0999 V2000
  115.3720  166.9398  144.5578 C   0  0  0  0  0  0  0  0  0  0  0  0
  116.8492  166.9029  144.9172 C   0  0  2  0  0  0  0  0  0  0  0  0
  117.5223  167.8822  144.0418 C   0  0  0  0  0  0  0  0  0  0  0  0
  118.2585  167.1756  142.9220 C   0  0  2  0  0  0  0  0  0  0  0  0
  119.1895  168.0317  142.2163 C   0  0  0  0  0  0  0  0  0  0  0  0
  120.4297  167.5506  141.8476 C   0  0  0  0  0  0  0  0  0  0  0  0
  121.3310  168.3313  141.1540 C   0  0  0  0  0  0  0  0  0  0  0  0
  121.0297  169.6320  140.7977 C   0  0  0  0  0  0  0  0  0  0  0  0
  119.7913  170.1112  141.1664 C   0  0  0  0  0  0  0  0  0  0  0  0
  118.8819  169.3262  141.8652 C   0  0  0  0  0  0  0  0  0  0  0  0
  122.1846  170.6170  139.9148 S   0  0  0  0  0  6  0  0  0  0  0  0
  123.3518  169.5442  139.1310 C   0  0  0  0  0  0  0  0  0  0  0  0
  122.8308  171.5930  140.8386 O   0  0  0  0  0  0  0  0  0  0  0  0
  121.4094  171.4049  138.8805 O   0  0  0  0  0  0  0  0  0  0  0  0
  117.5418  166.0790  142.3419 C   0  0  0  0  0  0  0  0  0  0  0  0
  117.2398  165.9431  141.1022 C   0  0  0  0  0  0  0  0  0  0  0  0
  117.5675  166.9153  140.1082 C   0  0  0  0  0  0  0  0  0  0  0  0
  118.2987  166.2616  138.9315 C   0  0  0  0  0  0  0  0  0  0  0  0
  117.2778  165.2746  138.4013 C   0  0  0  0  0  0  0  0  0  0  0  0
  117.0168  165.2621  137.2070 O   0  0  0  0  0  0  0  0  0  0  0  0
  116.6444  164.3658  139.3790 C   0  0  0  0  0  0  0  0  0  0  0  0
  116.6276  164.6730  140.6463 C   0  0  0  0  0  0  0  0  0  0  0  0
  116.0919  163.6958  141.6534 C   0  0  0  0  0  0  0  0  0  0  0  0
  117.1252  163.7426  142.8432 C   0  0  0  0  0  0  0  0  0  0  0  0
  116.9674  165.0939  143.3657 C   0  0  1  0  0  0  0  0  0  0  0  0
  117.4510  165.5005  144.6739 C   0  0  2  0  0  0  0  0  0  0  0  0
  116.8277  164.7552  145.8501 C   0  0  0  0  0  0  0  0  0  0  0  0
  117.2479  165.6702  146.9804 C   0  0  0  0  0  0  0  0  0  0  0  0
  116.9452  167.0511  146.3821 C   0  0  2  0  0  0  0  0  0  0  0  0
  115.7000  167.4092  146.9626 O   0  0  0  0  0  0  0  0  0  0  0  0
  117.9121  168.0821  146.8922 C   0  0  0  0  0  0  0  0  0  0  0  0
  119.2186  167.8380  146.6275 F   0  0  0  0  0  0  0  0  0  0  0  0
  117.4693  169.3148  146.4019 F   0  0  0  0  0  0  0  0  0  0  0  0
  117.6784  168.1930  148.4049 C   0  0  0  0  0  0  0  0  0  0  0  0
  118.5939  169.1168  148.8835 F   0  0  0  0  0  0  0  0  0  0  0  0
  117.9866  166.9902  149.0150 F   0  0  0  0  0  0  0  0  0  0  0  0
  116.4258  168.6117  148.7240 F   0  0  0  0  0  0  0  0  0  0  0  0
  2  1  1  6
  2  3  1  0
  3  4  1  0
  4  5  1  6
  5  6  2  0
  6  7  1  0
  7  8  2  0
  8  9  1  0
  9 10  2  0
  8 11  1  0
 11 12  1  0
 11 13  2  0
 11 14  2  0
  4 15  1  0
 15 16  2  0
 16 17  1  0
 17 18  1  0
 18 19  1  0
 19 20  2  0
 19 21  1  0
 21 22  2  0
 22 23  1  0
 23 24  1  0
 25 24  1  6
 25 26  1  0
 26 27  1  1
 27 28  1  0
 28 29  1  0
 29 30  1  1
 29 31  1  0
 31 32  1  0
 31 33  1  0
 31 34  1  0
 34 35  1  0
 34 36  1  0
 34 37  1  0
 26  2  1  0
 29  2  1  0
 10  5  1  0
 25 15  1  0
 22 16  1  0
M  END
$$$$
