
     RDKit          3D

 37 41  0  0  0  0  0  0  0  0999 V2000
  203.1678  134.0320  131.1880 C   0  0  0  0  0  0  0  0  0  0  0  0
  203.5739  134.7473  132.4670 C   0  0  2  0  0  0  0  0  0  0  0  0
  205.0482  134.7089  132.5235 C   0  0  0  0  0  0  0  0  0  0  0  0
  205.5145  133.6636  133.5161 C   0  0  2  0  0  0  0  0  0  0  0  0
  206.9171  133.7807  133.8576 C   0  0  0  0  0  0  0  0  0  0  0  0
  207.8710  133.1329  133.0985 C   0  0  0  0  0  0  0  0  0  0  0  0
  209.2167  133.2422  133.3815 C   0  0  0  0  0  0  0  0  0  0  0  0
  209.6684  134.0071  134.4401 C   0  0  0  0  0  0  0  0  0  0  0  0
  208.7152  134.6533  135.1971 C   0  0  0  0  0  0  0  0  0  0  0  0
  207.3590  134.5444  134.9135 C   0  0  0  0  0  0  0  0  0  0  0  0
  211.3838  134.1392  134.7914 S   0  0  0  0  0  6  0  0  0  0  0  0
  211.5993  134.1187  136.5466 C   0  0  0  0  0  0  0  0  0  0  0  0
  211.9386  135.3700  134.1584 O   0  0  0  0  0  0  0  0  0  0  0  0
  212.0681  132.9466  134.1583 O   0  0  0  0  0  0  0  0  0  0  0  0
  204.7729  132.4383  133.4778 C   0  0  0  0  0  0  0  0  0  0  0  0
  205.2576  131.2658  133.2865 C   0  0  0  0  0  0  0  0  0  0  0  0
  206.6459  131.0240  133.0520 C   0  0  0  0  0  0  0  0  0  0  0  0
  207.1796  129.9565  134.0123 C   0  0  0  0  0  0  0  0  0  0  0  0
  206.3544  128.7355  133.6577 C   0  0  0  0  0  0  0  0  0  0  0  0
  206.9169  127.6727  133.4369 O   0  0  0  0  0  0  0  0  0  0  0  0
  204.8878  128.9041  133.5985 C   0  0  0  0  0  0  0  0  0  0  0  0
  204.3691  130.0885  133.4285 C   0  0  0  0  0  0  0  0  0  0  0  0
  202.8801  130.2767  133.4885 C   0  0  0  0  0  0  0  0  0  0  0  0
  202.6775  131.5820  134.3491 C   0  0  0  0  0  0  0  0  0  0  0  0
  203.2522  132.6250  133.5089 C   0  0  1  0  0  0  0  0  0  0  0  0
  202.9953  134.0402  133.7133 C   0  0  2  0  0  0  0  0  0  0  0  0
  201.5333  134.4546  133.5779 C   0  0  0  0  0  0  0  0  0  0  0  0
  201.7054  135.9539  133.4612 C   0  0  0  0  0  0  0  0  0  0  0  0
  202.8798  136.0494  132.4773 C   0  0  2  0  0  0  0  0  0  0  0  0
  202.2597  136.3307  131.2315 O   0  0  0  0  0  0  0  0  0  0  0  0
  203.7238  137.2595  132.7628 C   0  0  0  0  0  0  0  0  0  0  0  0
  204.3329  137.2734  133.9734 F   0  0  0  0  0  0  0  0  0  0  0  0
  204.6165  137.3792  131.6929 F   0  0  0  0  0  0  0  0  0  0  0  0
  202.8083  138.4809  132.6043 C   0  0  0  0  0  0  0  0  0  0  0  0
  201.6503  138.2066  133.3146 F   0  0  0  0  0  0  0  0  0  0  0  0
  202.4289  138.6121  131.2803 F   0  0  0  0  0  0  0  0  0  0  0  0
  203.3565  139.6272  133.0856 F   0  0  0  0  0  0  0  0  0  0  0  0
  2  1  1  6
  2  3  1  0
  3  4  1  0
  4  5  1  6
  5  6  2  0
  6  7  1  0
  7  8  2  0
  8  9  1  0
  9 10  2  0
  8 11  1  0
 11 12  1  0
 11 13  2  0
 11 14  2  0
  4 15  1  0
 15 16  2  0
 16 17  1  0
 17 18  1  0
 18 19  1  0
 19 20  2  0
 19 21  1  0
 21 22  2  0
 22 23  1  0
 23 24  1  0
 25 24  1  1
 25 26  1  0
 26 27  1  6
 27 28  1  0
 28 29  1  0
 29 30  1  6
 29 31  1  0
 31 32  1  0
 31 33  1  0
 31 34  1  0
 34 35  1  0
 34 36  1  0
 34 37  1  0
 26  2  1  0
 29  2  1  0
 10  5  1  0
 25 15  1  0
 22 16  1  0
M  END
$$$$
