
     RDKit          3D

 37 41  0  0  0  0  0  0  0  0999 V2000
  148.8069  166.1577  133.1380 C   0  0  0  0  0  0  0  0  0  0  0  0
  147.6266  165.7049  132.2928 C   0  0  2  0  0  0  0  0  0  0  0  0
  148.1810  165.2396  131.0066 C   0  0  0  0  0  0  0  0  0  0  0  0
  147.9554  166.2761  129.9250 C   0  0  2  0  0  0  0  0  0  0  0  0
  148.1839  165.7700  128.5873 C   0  0  0  0  0  0  0  0  0  0  0  0
  149.3588  165.1098  128.2880 C   0  0  0  0  0  0  0  0  0  0  0  0
  149.5986  164.5946  127.0311 C   0  0  0  0  0  0  0  0  0  0  0  0
  148.6700  164.7179  126.0150 C   0  0  0  0  0  0  0  0  0  0  0  0
  147.4976  165.3771  126.3149 C   0  0  0  0  0  0  0  0  0  0  0  0
  147.2542  165.8969  127.5808 C   0  0  0  0  0  0  0  0  0  0  0  0
  148.9857  164.0582  124.4185 S   0  0  0  0  0  6  0  0  0  0  0  0
  148.7956  165.3537  123.2296 C   0  0  0  0  0  0  0  0  0  0  0  0
  148.0806  162.9021  124.1586 O   0  0  0  0  0  0  0  0  0  0  0  0
  150.4080  163.5399  124.4166 O   0  0  0  0  0  0  0  0  0  0  0  0
  148.1748  167.6280  130.3455 C   0  0  0  0  0  0  0  0  0  0  0  0
  148.9878  168.4646  129.8111 C   0  0  0  0  0  0  0  0  0  0  0  0
  149.8291  168.1367  128.7043 C   0  0  0  0  0  0  0  0  0  0  0  0
  149.6658  169.1613  127.5773 C   0  0  0  0  0  0  0  0  0  0  0  0
  150.1125  170.4563  128.2263 C   0  0  0  0  0  0  0  0  0  0  0  0
  150.9376  171.1593  127.6609 O   0  0  0  0  0  0  0  0  0  0  0  0
  149.5120  170.8010  129.5316 C   0  0  0  0  0  0  0  0  0  0  0  0
  148.9803  169.8716  130.2760 C   0  0  0  0  0  0  0  0  0  0  0  0
  148.2645  170.2375  131.5448 C   0  0  0  0  0  0  0  0  0  0  0  0
  146.9567  169.3571  131.5330 C   0  0  0  0  0  0  0  0  0  0  0  0
  147.4709  167.9989  131.6553 C   0  0  1  0  0  0  0  0  0  0  0  0
  146.6421  166.8677  132.0350 C   0  0  2  0  0  0  0  0  0  0  0  0
  146.0099  166.9698  133.4197 C   0  0  0  0  0  0  0  0  0  0  0  0
  145.5847  165.5295  133.6101 C   0  0  0  0  0  0  0  0  0  0  0  0
  146.8294  164.7776  133.1186 C   0  0  2  0  0  0  0  0  0  0  0  0
  147.5046  164.4166  134.3142 O   0  0  0  0  0  0  0  0  0  0  0  0
  146.4518  163.4679  132.4858 C   0  0  0  0  0  0  0  0  0  0  0  0
  145.7063  163.5586  131.3577 F   0  0  0  0  0  0  0  0  0  0  0  0
  147.6437  162.7587  132.3057 F   0  0  0  0  0  0  0  0  0  0  0  0
  145.7117  162.6586  133.5594 C   0  0  0  0  0  0  0  0  0  0  0  0
  145.3678  161.4477  132.9799 F   0  0  0  0  0  0  0  0  0  0  0  0
  144.5215  163.2865  133.8805 F   0  0  0  0  0  0  0  0  0  0  0  0
  146.4663  162.4176  134.6633 F   0  0  0  0  0  0  0  0  0  0  0  0
  2  1  1  1
  2  3  1  0
  3  4  1  0
  4  5  1  6
  5  6  2  0
  6  7  1  0
  7  8  2  0
  8  9  1  0
  9 10  2  0
  8 11  1  0
 11 12  1  0
 11 13  2  0
 11 14  2  0
  4 15  1  0
 15 16  2  0
 16 17  1  0
 17 18  1  0
 18 19  1  0
 19 20  2  0
 19 21  1  0
 21 22  2  0
 22 23  1  0
 23 24  1  0
 25 24  1  6
 25 26  1  0
 26 27  1  1
 27 28  1  0
 28 29  1  0
 29 30  1  1
 29 31  1  0
 31 32  1  0
 31 33  1  0
 31 34  1  0
 34 35  1  0
 34 36  1  0
 34 37  1  0
 26  2  1  0
 29  2  1  0
 10  5  1  0
 25 15  1  0
 22 16  1  0
M  END
$$$$
