
     RDKit          3D

 37 41  0  0  0  0  0  0  0  0999 V2000
  191.2242  163.7032  134.0737 C   0  0  0  0  0  0  0  0  0  0  0  0
  190.6924  162.6061  133.1649 C   0  0  2  0  0  0  0  0  0  0  0  0
  189.2950  162.9597  132.8477 C   0  0  0  0  0  0  0  0  0  0  0  0
  188.3357  162.1085  133.6541 C   0  0  2  0  0  0  0  0  0  0  0  0
  186.9698  162.1727  133.1767 C   0  0  0  0  0  0  0  0  0  0  0  0
  186.2032  161.0263  133.1150 C   0  0  0  0  0  0  0  0  0  0  0  0
  184.8919  161.0556  132.6878 C   0  0  0  0  0  0  0  0  0  0  0  0
  184.2882  162.2374  132.3024 C   0  0  0  0  0  0  0  0  0  0  0  0
  185.0544  163.3811  132.3643 C   0  0  0  0  0  0  0  0  0  0  0  0
  186.3758  163.3536  132.7944 C   0  0  0  0  0  0  0  0  0  0  0  0
  182.6181  162.2632  131.7602 S   0  0  0  0  0  6  0  0  0  0  0  0
  181.8308  160.7747  132.3007 C   0  0  0  0  0  0  0  0  0  0  0  0
  182.5672  162.4357  130.2799 O   0  0  0  0  0  0  0  0  0  0  0  0
  181.9576  163.4718  132.3882 O   0  0  0  0  0  0  0  0  0  0  0  0
  188.7255  161.9077  135.0181 C   0  0  0  0  0  0  0  0  0  0  0  0
  188.0270  162.1953  136.0553 C   0  0  0  0  0  0  0  0  0  0  0  0
  186.7345  162.7991  135.9826 C   0  0  0  0  0  0  0  0  0  0  0  0
  185.7153  161.9970  136.7977 C   0  0  0  0  0  0  0  0  0  0  0  0
  186.2669  162.0769  138.2073 C   0  0  0  0  0  0  0  0  0  0  0  0
  185.5315  162.4173  139.1228 O   0  0  0  0  0  0  0  0  0  0  0  0
  187.6909  161.7314  138.3970 C   0  0  0  0  0  0  0  0  0  0  0  0
  188.5186  161.7817  137.3906 C   0  0  0  0  0  0  0  0  0  0  0  0
  189.9371  161.3160  137.5554 C   0  0  0  0  0  0  0  0  0  0  0  0
  190.2313  160.4674  136.2597 C   0  0  0  0  0  0  0  0  0  0  0  0
  190.1808  161.4609  135.1947 C   0  0  1  0  0  0  0  0  0  0  0  0
  190.7253  161.2303  133.8676 C   0  0  2  0  0  0  0  0  0  0  0  0
  192.2272  160.9657  133.8258 C   0  0  0  0  0  0  0  0  0  0  0  0
  192.4777  161.1646  132.3463 C   0  0  0  0  0  0  0  0  0  0  0  0
  191.6662  162.4378  132.0691 C   0  0  2  0  0  0  0  0  0  0  0  0
  192.6413  163.4696  132.0617 O   0  0  0  0  0  0  0  0  0  0  0  0
  191.1123  162.4292  130.6721 C   0  0  0  0  0  0  0  0  0  0  0  0
  189.8944  163.0048  130.5240 F   0  0  0  0  0  0  0  0  0  0  0  0
  192.0953  162.9960  129.8546 F   0  0  0  0  0  0  0  0  0  0  0  0
  191.0750  160.9620  130.2235 C   0  0  0  0  0  0  0  0  0  0  0  0
  192.3488  160.6489  129.7762 F   0  0  0  0  0  0  0  0  0  0  0  0
  190.2369  160.8284  129.1310 F   0  0  0  0  0  0  0  0  0  0  0  0
  190.7383  160.1049  131.2226 F   0  0  0  0  0  0  0  0  0  0  0  0
  2  1  1  1
  2  3  1  0
  3  4  1  0
  4  5  1  1
  5  6  2  0
  6  7  1  0
  7  8  2  0
  8  9  1  0
  9 10  2  0
  8 11  1  0
 11 12  1  0
 11 13  2  0
 11 14  2  0
  4 15  1  0
 15 16  2  0
 16 17  1  0
 17 18  1  0
 18 19  1  0
 19 20  2  0
 19 21  1  0
 21 22  2  0
 22 23  1  0
 23 24  1  0
 25 24  1  1
 25 26  1  0
 26 27  1  1
 27 28  1  0
 28 29  1  0
 29 30  1  6
 29 31  1  0
 31 32  1  0
 31 33  1  0
 31 34  1  0
 34 35  1  0
 34 36  1  0
 34 37  1  0
 26  2  1  0
 29  2  1  0
 10  5  1  0
 25 15  1  0
 22 16  1  0
M  END
$$$$
