
     RDKit          3D

 37 41  0  0  0  0  0  0  0  0999 V2000
  200.4887  135.6065  134.7684 C   0  0  0  0  0  0  0  0  0  0  0  0
  201.2785  134.3325  135.0247 C   0  0  2  0  0  0  0  0  0  0  0  0
  202.6194  134.7501  135.4787 C   0  0  0  0  0  0  0  0  0  0  0  0
  203.6307  134.5940  134.3615 C   0  0  2  0  0  0  0  0  0  0  0  0
  205.0040  134.6808  134.8133 C   0  0  0  0  0  0  0  0  0  0  0  0
  205.8332  133.5807  134.7242 C   0  0  0  0  0  0  0  0  0  0  0  0
  207.1525  133.6356  135.1231 C   0  0  0  0  0  0  0  0  0  0  0  0
  207.7019  134.7977  135.6304 C   0  0  0  0  0  0  0  0  0  0  0  0
  206.8732  135.8953  135.7189 C   0  0  0  0  0  0  0  0  0  0  0  0
  205.5437  135.8419  135.3175 C   0  0  0  0  0  0  0  0  0  0  0  0
  209.3827  134.8564  136.1353 S   0  0  0  0  0  6  0  0  0  0  0  0
  209.4354  135.2156  137.8662 C   0  0  0  0  0  0  0  0  0  0  0  0
  210.1241  135.8587  135.3173 O   0  0  0  0  0  0  0  0  0  0  0  0
  209.9863  133.4965  135.8564 O   0  0  0  0  0  0  0  0  0  0  0  0
  203.1573  135.0042  133.0729 C   0  0  0  0  0  0  0  0  0  0  0  0
  203.6997  135.8833  132.3117 C   0  0  0  0  0  0  0  0  0  0  0  0
  204.8732  136.6125  132.6748 C   0  0  0  0  0  0  0  0  0  0  0  0
  205.9343  136.5140  131.5744 C   0  0  0  0  0  0  0  0  0  0  0  0
  205.2507  137.1552  130.3830 C   0  0  0  0  0  0  0  0  0  0  0  0
  205.8315  138.0279  129.7539 O   0  0  0  0  0  0  0  0  0  0  0  0
  203.8940  136.6782  130.0441 C   0  0  0  0  0  0  0  0  0  0  0  0
  203.1650  136.0781  130.9436 C   0  0  0  0  0  0  0  0  0  0  0  0
  201.8362  135.4873  130.5675 C   0  0  0  0  0  0  0  0  0  0  0  0
  201.8088  134.0813  131.2804 C   0  0  0  0  0  0  0  0  0  0  0  0
  201.7883  134.4281  132.6957 C   0  0  1  0  0  0  0  0  0  0  0  0
  201.4139  133.4877  133.7379 C   0  0  2  0  0  0  0  0  0  0  0  0
  199.9883  132.9534  133.6402 C   0  0  0  0  0  0  0  0  0  0  0  0
  199.8439  132.3634  135.0267 C   0  0  0  0  0  0  0  0  0  0  0  0
  200.4512  133.4744  135.8946 C   0  0  2  0  0  0  0  0  0  0  0  0
  199.3210  134.1665  136.4036 O   0  0  0  0  0  0  0  0  0  0  0  0
  201.1239  132.9007  137.1098 C   0  0  0  0  0  0  0  0  0  0  0  0
  202.1523  132.0536  136.8620 F   0  0  0  0  0  0  0  0  0  0  0  0
  201.4840  133.9885  137.9117 F   0  0  0  0  0  0  0  0  0  0  0  0
  200.0305  132.1993  137.9269 C   0  0  0  0  0  0  0  0  0  0  0  0
  199.3747  131.3390  137.0606 F   0  0  0  0  0  0  0  0  0  0  0  0
  199.0891  133.1251  138.3401 F   0  0  0  0  0  0  0  0  0  0  0  0
  200.5202  131.4807  138.9709 F   0  0  0  0  0  0  0  0  0  0  0  0
  2  1  1  6
  2  3  1  0
  3  4  1  0
  4  5  1  1
  5  6  2  0
  6  7  1  0
  7  8  2  0
  8  9  1  0
  9 10  2  0
  8 11  1  0
 11 12  1  0
 11 13  2  0
 11 14  2  0
  4 15  1  0
 15 16  2  0
 16 17  1  0
 17 18  1  0
 18 19  1  0
 19 20  2  0
 19 21  1  0
 21 22  2  0
 22 23  1  0
 23 24  1  0
 25 24  1  6
 25 26  1  0
 26 27  1  6
 27 28  1  0
 28 29  1  0
 29 30  1  1
 29 31  1  0
 31 32  1  0
 31 33  1  0
 31 34  1  0
 34 35  1  0
 34 36  1  0
 34 37  1  0
 26  2  1  0
 29  2  1  0
 10  5  1  0
 25 15  1  0
 22 16  1  0
M  END
$$$$
