
     RDKit          3D

 37 41  0  0  0  0  0  0  0  0999 V2000
  190.5456  159.4221  121.2781 C   0  0  0  0  0  0  0  0  0  0  0  0
  191.1315  160.6246  120.5548 C   0  0  2  0  0  0  0  0  0  0  0  0
  190.6769  160.5382  119.1533 C   0  0  0  0  0  0  0  0  0  0  0  0
  191.7980  160.0466  118.2607 C   0  0  2  0  0  0  0  0  0  0  0  0
  191.5327  160.2332  116.8492 C   0  0  0  0  0  0  0  0  0  0  0  0
  192.3331  161.0712  116.0990 C   0  0  0  0  0  0  0  0  0  0  0  0
  192.1231  161.2532  114.7478 C   0  0  0  0  0  0  0  0  0  0  0  0
  191.0993  160.6024  114.0859 C   0  0  0  0  0  0  0  0  0  0  0  0
  190.3009  159.7662  114.8358 C   0  0  0  0  0  0  0  0  0  0  0  0
  190.5110  159.5815  116.1972 C   0  0  0  0  0  0  0  0  0  0  0  0
  190.8409  160.8415  112.3655 S   0  0  0  0  0  6  0  0  0  0  0  0
  191.0803  159.2943  111.5429 C   0  0  0  0  0  0  0  0  0  0  0  0
  191.7505  161.9089  111.8588 O   0  0  0  0  0  0  0  0  0  0  0  0
  189.4177  161.3245  112.1849 O   0  0  0  0  0  0  0  0  0  0  0  0
  192.5780  158.9835  118.8213 C   0  0  0  0  0  0  0  0  0  0  0  0
  192.7778  157.8313  118.2932 C   0  0  0  0  0  0  0  0  0  0  0  0
  192.2060  157.4351  117.0455 C   0  0  0  0  0  0  0  0  0  0  0  0
  193.2869  156.9052  116.0982 C   0  0  0  0  0  0  0  0  0  0  0  0
  193.8347  155.7043  116.8434 C   0  0  0  0  0  0  0  0  0  0  0  0
  193.9335  154.6314  116.2656 O   0  0  0  0  0  0  0  0  0  0  0  0
  194.2258  155.9043  118.2541 C   0  0  0  0  0  0  0  0  0  0  0  0
  193.7361  156.9019  118.9363 C   0  0  0  0  0  0  0  0  0  0  0  0
  194.2241  157.1755  120.3303 C   0  0  0  0  0  0  0  0  0  0  0  0
  194.4151  158.7395  120.3862 C   0  0  0  0  0  0  0  0  0  0  0  0
  193.0543  159.2441  120.2544 C   0  0  1  0  0  0  0  0  0  0  0  0
  192.6761  160.6051  120.5939 C   0  0  2  0  0  0  0  0  0  0  0  0
  192.8926  160.9872  122.0549 C   0  0  0  0  0  0  0  0  0  0  0  0
  192.0621  162.2515  122.1112 C   0  0  0  0  0  0  0  0  0  0  0  0
  190.7985  161.8191  121.3546 C   0  0  2  0  0  0  0  0  0  0  0  0
  189.8670  161.5257  122.3851 O   0  0  0  0  0  0  0  0  0  0  0  0
  190.1922  162.9774  120.6136 C   0  0  0  0  0  0  0  0  0  0  0  0
  190.9336  163.4679  119.5907 F   0  0  0  0  0  0  0  0  0  0  0  0
  188.9124  162.5698  120.2236 F   0  0  0  0  0  0  0  0  0  0  0  0
  189.9184  164.0704  121.6555 C   0  0  0  0  0  0  0  0  0  0  0  0
  189.2576  165.0943  120.9956 F   0  0  0  0  0  0  0  0  0  0  0  0
  191.1153  164.6039  122.0990 F   0  0  0  0  0  0  0  0  0  0  0  0
  189.1452  163.6440  122.6883 F   0  0  0  0  0  0  0  0  0  0  0  0
  2  1  1  1
  2  3  1  0
  3  4  1  0
  4  5  1  6
  5  6  2  0
  6  7  1  0
  7  8  2  0
  8  9  1  0
  9 10  2  0
  8 11  1  0
 11 12  1  0
 11 13  2  0
 11 14  2  0
  4 15  1  0
 15 16  2  0
 16 17  1  0
 17 18  1  0
 18 19  1  0
 19 20  2  0
 19 21  1  0
 21 22  2  0
 22 23  1  0
 23 24  1  0
 25 24  1  6
 25 26  1  0
 26 27  1  1
 27 28  1  0
 28 29  1  0
 29 30  1  1
 29 31  1  0
 31 32  1  0
 31 33  1  0
 31 34  1  0
 34 35  1  0
 34 36  1  0
 34 37  1  0
 26  2  1  0
 29  2  1  0
 10  5  1  0
 25 15  1  0
 22 16  1  0
M  END
$$$$
