
     RDKit          3D

 37 41  0  0  0  0  0  0  0  0999 V2000
  190.1284  156.9174  121.7068 C   0  0  0  0  0  0  0  0  0  0  0  0
  190.7151  158.1472  122.3821 C   0  0  2  0  0  0  0  0  0  0  0  0
  190.8094  159.1943  121.3463 C   0  0  0  0  0  0  0  0  0  0  0  0
  192.2412  159.3480  120.8755 C   0  0  2  0  0  0  0  0  0  0  0  0
  192.4657  160.5519  120.1022 C   0  0  0  0  0  0  0  0  0  0  0  0
  193.6677  161.2236  120.2000 C   0  0  0  0  0  0  0  0  0  0  0  0
  193.9234  162.3595  119.4601 C   0  0  0  0  0  0  0  0  0  0  0  0
  192.9843  162.8747  118.5870 C   0  0  0  0  0  0  0  0  0  0  0  0
  191.7847  162.2032  118.4902 C   0  0  0  0  0  0  0  0  0  0  0  0
  191.5252  161.0587  119.2348 C   0  0  0  0  0  0  0  0  0  0  0  0
  193.3203  164.3213  117.6500 S   0  0  0  0  0  6  0  0  0  0  0  0
  194.7969  164.0522  116.7146 C   0  0  0  0  0  0  0  0  0  0  0  0
  193.4207  165.5014  118.5560 O   0  0  0  0  0  0  0  0  0  0  0  0
  192.1411  164.5468  116.7279 O   0  0  0  0  0  0  0  0  0  0  0  0
  192.9431  158.1113  120.7012 C   0  0  0  0  0  0  0  0  0  0  0  0
  193.5133  157.7096  119.6242 C   0  0  0  0  0  0  0  0  0  0  0  0
  193.4990  158.4584  118.4078 C   0  0  0  0  0  0  0  0  0  0  0  0
  194.9198  158.6338  117.8628 C   0  0  0  0  0  0  0  0  0  0  0  0
  195.3668  157.2076  117.6103 C   0  0  0  0  0  0  0  0  0  0  0  0
  195.8482  156.9109  116.5263 O   0  0  0  0  0  0  0  0  0  0  0  0
  195.1913  156.2386  118.7118 C   0  0  0  0  0  0  0  0  0  0  0  0
  194.3266  156.4715  119.6598 C   0  0  0  0  0  0  0  0  0  0  0  0
  194.2334  155.5477  120.8406 C   0  0  0  0  0  0  0  0  0  0  0  0
  194.1183  156.5052  122.0879 C   0  0  0  0  0  0  0  0  0  0  0  0
  192.8273  157.1520  121.8907 C   0  0  1  0  0  0  0  0  0  0  0  0
  192.1239  157.8583  122.9476 C   0  0  2  0  0  0  0  0  0  0  0  0
  191.7385  157.0001  124.1486 C   0  0  0  0  0  0  0  0  0  0  0  0
  190.7367  157.9236  124.8080 C   0  0  0  0  0  0  0  0  0  0  0  0
  189.9188  158.3980  123.5988 C   0  0  2  0  0  0  0  0  0  0  0  0
  188.7482  157.5958  123.6423 O   0  0  0  0  0  0  0  0  0  0  0  0
  189.4240  159.8024  123.8014 C   0  0  0  0  0  0  0  0  0  0  0  0
  190.3734  160.7682  123.7516 F   0  0  0  0  0  0  0  0  0  0  0  0
  188.3911  159.9938  122.8782 F   0  0  0  0  0  0  0  0  0  0  0  0
  188.7026  159.8228  125.1559 C   0  0  0  0  0  0  0  0  0  0  0  0
  188.6682  161.1449  125.5699 F   0  0  0  0  0  0  0  0  0  0  0  0
  189.4546  159.1417  126.0963 F   0  0  0  0  0  0  0  0  0  0  0  0
  187.4303  159.3502  125.0921 F   0  0  0  0  0  0  0  0  0  0  0  0
  2  1  1  6
  2  3  1  0
  3  4  1  0
  4  5  1  6
  5  6  2  0
  6  7  1  0
  7  8  2  0
  8  9  1  0
  9 10  2  0
  8 11  1  0
 11 12  1  0
 11 13  2  0
 11 14  2  0
  4 15  1  0
 15 16  2  0
 16 17  1  0
 17 18  1  0
 18 19  1  0
 19 20  2  0
 19 21  1  0
 21 22  2  0
 22 23  1  0
 23 24  1  0
 25 24  1  1
 25 26  1  0
 26 27  1  1
 27 28  1  0
 28 29  1  0
 29 30  1  6
 29 31  1  0
 31 32  1  0
 31 33  1  0
 31 34  1  0
 34 35  1  0
 34 36  1  0
 34 37  1  0
 26  2  1  0
 29  2  1  0
 10  5  1  0
 25 15  1  0
 22 16  1  0
M  END
$$$$
