
     RDKit          3D

 37 41  0  0  0  0  0  0  0  0999 V2000
  148.0353  167.3708  134.5180 C   0  0  0  0  0  0  0  0  0  0  0  0
  146.7856  166.9086  133.7850 C   0  0  2  0  0  0  0  0  0  0  0  0
  147.1128  165.6076  133.1696 C   0  0  0  0  0  0  0  0  0  0  0  0
  147.3557  165.7696  131.6830 C   0  0  2  0  0  0  0  0  0  0  0  0
  147.3706  164.5130  130.9629 C   0  0  0  0  0  0  0  0  0  0  0  0
  148.2147  163.4962  131.3617 C   0  0  0  0  0  0  0  0  0  0  0  0
  148.2372  162.2789  130.7132 C   0  0  0  0  0  0  0  0  0  0  0  0
  147.4131  162.0250  129.6333 C   0  0  0  0  0  0  0  0  0  0  0  0
  146.5708  163.0408  129.2360 C   0  0  0  0  0  0  0  0  0  0  0  0
  146.5467  164.2679  129.8883 C   0  0  0  0  0  0  0  0  0  0  0  0
  147.4500  160.4717  128.8150 S   0  0  0  0  0  6  0  0  0  0  0  0
  145.9207  159.6391  129.1246 C   0  0  0  0  0  0  0  0  0  0  0  0
  148.6340  159.6868  129.2682 O   0  0  0  0  0  0  0  0  0  0  0  0
  147.6163  160.7441  127.3353 O   0  0  0  0  0  0  0  0  0  0  0  0
  148.1139  166.9329  131.3303 C   0  0  0  0  0  0  0  0  0  0  0  0
  149.2093  166.9489  130.6622 C   0  0  0  0  0  0  0  0  0  0  0  0
  149.8521  165.7641  130.1893 C   0  0  0  0  0  0  0  0  0  0  0  0
  150.1472  165.8696  128.6899 C   0  0  0  0  0  0  0  0  0  0  0  0
  151.0849  167.0579  128.6096 C   0  0  0  0  0  0  0  0  0  0  0  0
  152.1360  166.9544  127.9938 O   0  0  0  0  0  0  0  0  0  0  0  0
  150.6653  168.2981  129.2943 C   0  0  0  0  0  0  0  0  0  0  0  0
  149.7837  168.2524  130.2542 C   0  0  0  0  0  0  0  0  0  0  0  0
  149.2686  169.5230  130.8677 C   0  0  0  0  0  0  0  0  0  0  0  0
  147.7130  169.3017  130.9962 C   0  0  0  0  0  0  0  0  0  0  0  0
  147.6111  168.2283  131.9767 C   0  0  1  0  0  0  0  0  0  0  0  0
  146.3804  167.9100  132.6801 C   0  0  2  0  0  0  0  0  0  0  0  0
  145.8295  169.0335  133.5528 C   0  0  0  0  0  0  0  0  0  0  0  0
  144.8390  168.2458  134.3834 C   0  0  0  0  0  0  0  0  0  0  0  0
  145.6626  166.9999  134.7379 C   0  0  2  0  0  0  0  0  0  0  0  0
  146.1086  167.2508  136.0622 O   0  0  0  0  0  0  0  0  0  0  0  0
  144.7814  165.7886  134.8574 C   0  0  0  0  0  0  0  0  0  0  0  0
  144.2268  165.3542  133.6996 F   0  0  0  0  0  0  0  0  0  0  0  0
  145.5409  164.8109  135.5080 F   0  0  0  0  0  0  0  0  0  0  0  0
  143.6924  166.1369  135.8811 C   0  0  0  0  0  0  0  0  0  0  0  0
  142.7807  165.0933  135.8647 F   0  0  0  0  0  0  0  0  0  0  0  0
  143.0020  167.2612  135.4651 F   0  0  0  0  0  0  0  0  0  0  0  0
  144.1715  166.2805  137.1445 F   0  0  0  0  0  0  0  0  0  0  0  0
  2  1  1  1
  2  3  1  0
  3  4  1  0
  4  5  1  1
  5  6  2  0
  6  7  1  0
  7  8  2  0
  8  9  1  0
  9 10  2  0
  8 11  1  0
 11 12  1  0
 11 13  2  0
 11 14  2  0
  4 15  1  0
 15 16  2  0
 16 17  1  0
 17 18  1  0
 18 19  1  0
 19 20  2  0
 19 21  1  0
 21 22  2  0
 22 23  1  0
 23 24  1  0
 25 24  1  6
 25 26  1  0
 26 27  1  1
 27 28  1  0
 28 29  1  0
 29 30  1  1
 29 31  1  0
 31 32  1  0
 31 33  1  0
 31 34  1  0
 34 35  1  0
 34 36  1  0
 34 37  1  0
 26  2  1  0
 29  2  1  0
 10  5  1  0
 25 15  1  0
 22 16  1  0
M  END
$$$$
