
     RDKit          3D

 37 41  0  0  0  0  0  0  0  0999 V2000
  198.8109  139.3448  133.2806 C   0  0  0  0  0  0  0  0  0  0  0  0
  199.2818  138.1890  132.4118 C   0  0  2  0  0  0  0  0  0  0  0  0
  200.6756  137.9044  132.8051 C   0  0  0  0  0  0  0  0  0  0  0  0
  201.6409  138.4560  131.7760 C   0  0  2  0  0  0  0  0  0  0  0  0
  202.9901  137.9508  131.9248 C   0  0  0  0  0  0  0  0  0  0  0  0
  203.7142  138.2351  133.0652 C   0  0  0  0  0  0  0  0  0  0  0  0
  204.9924  137.7504  133.2496 C   0  0  0  0  0  0  0  0  0  0  0  0
  205.6042  136.9571  132.2976 C   0  0  0  0  0  0  0  0  0  0  0  0
  204.8804  136.6740  131.1596 C   0  0  0  0  0  0  0  0  0  0  0  0
  203.5924  137.1615  130.9721 C   0  0  0  0  0  0  0  0  0  0  0  0
  207.2319  136.3454  132.5426 S   0  0  0  0  0  6  0  0  0  0  0  0
  207.4029  135.8716  134.2379 C   0  0  0  0  0  0  0  0  0  0  0  0
  208.2288  137.3746  132.1299 O   0  0  0  0  0  0  0  0  0  0  0  0
  207.4053  135.1458  131.6358 O   0  0  0  0  0  0  0  0  0  0  0  0
  201.2949  139.7529  131.2751 C   0  0  0  0  0  0  0  0  0  0  0  0
  202.0370  140.7992  131.3059 C   0  0  0  0  0  0  0  0  0  0  0  0
  203.3412  140.8138  131.8887 C   0  0  0  0  0  0  0  0  0  0  0  0
  204.3680  141.3826  130.9044 C   0  0  0  0  0  0  0  0  0  0  0  0
  203.8691  142.7944  130.6689 C   0  0  0  0  0  0  0  0  0  0  0  0
  204.6451  143.7328  130.7784 O   0  0  0  0  0  0  0  0  0  0  0  0
  202.4445  142.9579  130.3130 C   0  0  0  0  0  0  0  0  0  0  0  0
  201.5829  142.0238  130.6061 C   0  0  0  0  0  0  0  0  0  0  0  0
  200.1597  142.1355  130.1389 C   0  0  0  0  0  0  0  0  0  0  0  0
  199.7980  140.6934  129.6143 C   0  0  0  0  0  0  0  0  0  0  0  0
  199.8359  139.8818  130.8242 C   0  0  1  0  0  0  0  0  0  0  0  0
  199.2388  138.5603  130.9124 C   0  0  2  0  0  0  0  0  0  0  0  0
  197.7301  138.5201  130.6896 C   0  0  0  0  0  0  0  0  0  0  0  0
  197.4322  137.1364  131.2259 C   0  0  0  0  0  0  0  0  0  0  0  0
  198.2656  137.1240  132.5149 C   0  0  2  0  0  0  0  0  0  0  0  0
  197.3175  137.3916  133.5373 O   0  0  0  0  0  0  0  0  0  0  0  0
  198.7690  135.7407  132.8169 C   0  0  0  0  0  0  0  0  0  0  0  0
  199.6877  135.2518  131.9488 F   0  0  0  0  0  0  0  0  0  0  0  0
  199.2172  135.7644  134.1415 F   0  0  0  0  0  0  0  0  0  0  0  0
  197.5370  134.8272  132.8716 C   0  0  0  0  0  0  0  0  0  0  0  0
  197.0836  134.6902  131.5691 F   0  0  0  0  0  0  0  0  0  0  0  0
  196.5213  135.4535  133.5716 F   0  0  0  0  0  0  0  0  0  0  0  0
  197.8068  133.5938  133.3737 F   0  0  0  0  0  0  0  0  0  0  0  0
  2  1  1  1
  2  3  1  0
  3  4  1  0
  4  5  1  1
  5  6  2  0
  6  7  1  0
  7  8  2  0
  8  9  1  0
  9 10  2  0
  8 11  1  0
 11 12  1  0
 11 13  2  0
 11 14  2  0
  4 15  1  0
 15 16  2  0
 16 17  1  0
 17 18  1  0
 18 19  1  0
 19 20  2  0
 19 21  1  0
 21 22  2  0
 22 23  1  0
 23 24  1  0
 25 24  1  6
 25 26  1  0
 26 27  1  1
 27 28  1  0
 28 29  1  0
 29 30  1  1
 29 31  1  0
 31 32  1  0
 31 33  1  0
 31 34  1  0
 34 35  1  0
 34 36  1  0
 34 37  1  0
 26  2  1  0
 29  2  1  0
 10  5  1  0
 25 15  1  0
 22 16  1  0
M  END
$$$$
