
     RDKit          3D

 37 41  0  0  0  0  0  0  0  0999 V2000
  129.6230  146.6715  132.6547 C   0  0  0  0  0  0  0  0  0  0  0  0
  129.9245  146.4695  134.1315 C   0  0  2  0  0  0  0  0  0  0  0  0
  128.7193  145.8639  134.7305 C   0  0  0  0  0  0  0  0  0  0  0  0
  127.9378  146.8992  135.5132 C   0  0  2  0  0  0  0  0  0  0  0  0
  126.9288  146.3242  136.3787 C   0  0  0  0  0  0  0  0  0  0  0  0
  126.3129  145.1384  136.0319 C   0  0  0  0  0  0  0  0  0  0  0  0
  125.3653  144.5513  136.8444 C   0  0  0  0  0  0  0  0  0  0  0  0
  124.9911  145.1270  138.0437 C   0  0  0  0  0  0  0  0  0  0  0  0
  125.6066  146.3107  138.3889 C   0  0  0  0  0  0  0  0  0  0  0  0
  126.5616  146.9038  137.5715 C   0  0  0  0  0  0  0  0  0  0  0  0
  123.7837  144.3710  139.0703 S   0  0  0  0  0  6  0  0  0  0  0  0
  124.5660  143.8589  140.5714 C   0  0  0  0  0  0  0  0  0  0  0  0
  123.1360  143.2406  138.3448 O   0  0  0  0  0  0  0  0  0  0  0  0
  122.7178  145.4079  139.3537 O   0  0  0  0  0  0  0  0  0  0  0  0
  127.8477  148.1792  134.8760 C   0  0  0  0  0  0  0  0  0  0  0  0
  126.7663  148.8041  134.5818 C   0  0  0  0  0  0  0  0  0  0  0  0
  125.4647  148.2735  134.8367 C   0  0  0  0  0  0  0  0  0  0  0  0
  124.6104  149.2825  135.6105 C   0  0  0  0  0  0  0  0  0  0  0  0
  124.5332  150.4624  134.6620 C   0  0  0  0  0  0  0  0  0  0  0  0
  123.4447  150.9536  134.4000 O   0  0  0  0  0  0  0  0  0  0  0  0
  125.8044  150.9610  134.0978 C   0  0  0  0  0  0  0  0  0  0  0  0
  126.8547  150.1887  134.0616 C   0  0  0  0  0  0  0  0  0  0  0  0
  128.1765  150.7325  133.5998 C   0  0  0  0  0  0  0  0  0  0  0  0
  129.2246  150.1609  134.6296 C   0  0  0  0  0  0  0  0  0  0  0  0
  129.1891  148.7262  134.3761 C   0  0  1  0  0  0  0  0  0  0  0  0
  130.2238  147.8139  134.8321 C   0  0  2  0  0  0  0  0  0  0  0  0
  131.6147  148.0846  134.2665 C   0  0  0  0  0  0  0  0  0  0  0  0
  132.2908  146.7779  134.6222 C   0  0  0  0  0  0  0  0  0  0  0  0
  131.2151  145.7596  134.2197 C   0  0  2  0  0  0  0  0  0  0  0  0
  131.6491  145.2869  132.9532 O   0  0  0  0  0  0  0  0  0  0  0  0
  131.2584  144.5505  135.1110 C   0  0  0  0  0  0  0  0  0  0  0  0
  132.4193  144.3638  135.7849 F   0  0  0  0  0  0  0  0  0  0  0  0
  130.1408  144.6369  135.9476 F   0  0  0  0  0  0  0  0  0  0  0  0
  130.9481  143.3383  134.2224 C   0  0  0  0  0  0  0  0  0  0  0  0
  132.1279  143.0049  133.5761 F   0  0  0  0  0  0  0  0  0  0  0  0
  130.0531  143.7016  133.2320 F   0  0  0  0  0  0  0  0  0  0  0  0
  130.5117  142.2588  134.9225 F   0  0  0  0  0  0  0  0  0  0  0  0
  2  1  1  6
  2  3  1  0
  3  4  1  0
  4  5  1  6
  5  6  2  0
  6  7  1  0
  7  8  2  0
  8  9  1  0
  9 10  2  0
  8 11  1  0
 11 12  1  0
 11 13  2  0
 11 14  2  0
  4 15  1  0
 15 16  2  0
 16 17  1  0
 17 18  1  0
 18 19  1  0
 19 20  2  0
 19 21  1  0
 21 22  2  0
 22 23  1  0
 23 24  1  0
 25 24  1  1
 25 26  1  0
 26 27  1  6
 27 28  1  0
 28 29  1  0
 29 30  1  6
 29 31  1  0
 31 32  1  0
 31 33  1  0
 31 34  1  0
 34 35  1  0
 34 36  1  0
 34 37  1  0
 26  2  1  0
 29  2  1  0
 10  5  1  0
 25 15  1  0
 22 16  1  0
M  END
$$$$
