
     RDKit          3D

 37 41  0  0  0  0  0  0  0  0999 V2000
  129.5086  151.0019  133.0725 C   0  0  0  0  0  0  0  0  0  0  0  0
  129.9113  150.1895  134.2933 C   0  0  2  0  0  0  0  0  0  0  0  0
  129.5699  148.7843  133.9979 C   0  0  0  0  0  0  0  0  0  0  0  0
  128.3057  148.3802  134.7284 C   0  0  2  0  0  0  0  0  0  0  0  0
  128.0826  146.9491  134.7426 C   0  0  0  0  0  0  0  0  0  0  0  0
  127.7700  146.2854  133.5733 C   0  0  0  0  0  0  0  0  0  0  0  0
  127.5746  144.9201  133.5470 C   0  0  0  0  0  0  0  0  0  0  0  0
  127.6840  144.1565  134.6936 C   0  0  0  0  0  0  0  0  0  0  0  0
  127.9961  144.8202  135.8603 C   0  0  0  0  0  0  0  0  0  0  0  0
  128.1933  146.1958  135.8888 C   0  0  0  0  0  0  0  0  0  0  0  0
  127.4332  142.4191  134.6487 S   0  0  0  0  0  6  0  0  0  0  0  0
  125.7178  142.1083  134.3515 C   0  0  0  0  0  0  0  0  0  0  0  0
  127.9179  141.8030  135.9172 O   0  0  0  0  0  0  0  0  0  0  0  0
  128.2763  141.8697  133.5178 O   0  0  0  0  0  0  0  0  0  0  0  0
  127.2764  149.3767  134.7263 C   0  0  0  0  0  0  0  0  0  0  0  0
  126.0773  149.2258  134.2951 C   0  0  0  0  0  0  0  0  0  0  0  0
  125.6039  148.0089  133.7160 C   0  0  0  0  0  0  0  0  0  0  0  0
  124.3099  147.5524  134.3970 C   0  0  0  0  0  0  0  0  0  0  0  0
  123.3527  148.6920  134.1096 C   0  0  0  0  0  0  0  0  0  0  0  0
  122.2489  148.4477  133.6441 O   0  0  0  0  0  0  0  0  0  0  0  0
  123.8188  150.0603  134.4154 C   0  0  0  0  0  0  0  0  0  0  0  0
  125.0946  150.3144  134.5071 C   0  0  0  0  0  0  0  0  0  0  0  0
  125.5648  151.6752  134.9354 C   0  0  0  0  0  0  0  0  0  0  0  0
  126.7272  151.3906  135.9617 C   0  0  0  0  0  0  0  0  0  0  0  0
  127.7561  150.7740  135.1340 C   0  0  1  0  0  0  0  0  0  0  0  0
  129.1419  150.6493  135.5520 C   0  0  2  0  0  0  0  0  0  0  0  0
  129.8569  151.9719  135.8110 C   0  0  0  0  0  0  0  0  0  0  0  0
  131.2901  151.4853  135.8279 C   0  0  0  0  0  0  0  0  0  0  0  0
  131.3067  150.5465  134.6135 C   0  0  2  0  0  0  0  0  0  0  0  0
  131.9046  151.3253  133.5879 O   0  0  0  0  0  0  0  0  0  0  0  0
  132.2608  149.4055  134.8285 C   0  0  0  0  0  0  0  0  0  0  0  0
  131.9131  148.5302  135.8030 F   0  0  0  0  0  0  0  0  0  0  0  0
  132.4404  148.8010  133.5802 F   0  0  0  0  0  0  0  0  0  0  0  0
  133.6313  150.0290  135.1255 C   0  0  0  0  0  0  0  0  0  0  0  0
  134.0444  150.6578  133.9617 F   0  0  0  0  0  0  0  0  0  0  0  0
  134.5552  149.0300  135.3752 F   0  0  0  0  0  0  0  0  0  0  0  0
  133.5971  150.9439  136.1295 F   0  0  0  0  0  0  0  0  0  0  0  0
  2  1  1  6
  2  3  1  0
  3  4  1  0
  4  5  1  6
  5  6  2  0
  6  7  1  0
  7  8  2  0
  8  9  1  0
  9 10  2  0
  8 11  1  0
 11 12  1  0
 11 13  2  0
 11 14  2  0
  4 15  1  0
 15 16  2  0
 16 17  1  0
 17 18  1  0
 18 19  1  0
 19 20  2  0
 19 21  1  0
 21 22  2  0
 22 23  1  0
 23 24  1  0
 25 24  1  1
 25 26  1  0
 26 27  1  6
 27 28  1  0
 28 29  1  0
 29 30  1  6
 29 31  1  0
 31 32  1  0
 31 33  1  0
 31 34  1  0
 34 35  1  0
 34 36  1  0
 34 37  1  0
 26  2  1  0
 29  2  1  0
 10  5  1  0
 25 15  1  0
 22 16  1  0
M  END
$$$$
