
     RDKit          3D

 37 41  0  0  0  0  0  0  0  0999 V2000
  130.5104  146.1219  135.1900 C   0  0  0  0  0  0  0  0  0  0  0  0
  129.2146  145.3654  134.9426 C   0  0  2  0  0  0  0  0  0  0  0  0
  128.6076  145.9507  133.7313 C   0  0  0  0  0  0  0  0  0  0  0  0
  127.4558  146.8623  134.1020 C   0  0  2  0  0  0  0  0  0  0  0  0
  126.6206  147.2207  132.9742 C   0  0  0  0  0  0  0  0  0  0  0  0
  127.1955  147.5390  131.7602 C   0  0  0  0  0  0  0  0  0  0  0  0
  126.4290  147.8617  130.6597 C   0  0  0  0  0  0  0  0  0  0  0  0
  125.0487  147.8801  130.7260 C   0  0  0  0  0  0  0  0  0  0  0  0
  124.4759  147.5622  131.9385 C   0  0  0  0  0  0  0  0  0  0  0  0
  125.2466  147.2368  133.0484 C   0  0  0  0  0  0  0  0  0  0  0  0
  124.0826  148.2924  129.3188 S   0  0  0  0  0  6  0  0  0  0  0  0
  124.5241  147.2029  127.9976 C   0  0  0  0  0  0  0  0  0  0  0  0
  124.2802  149.7286  128.9701 O   0  0  0  0  0  0  0  0  0  0  0  0
  122.6290  148.1058  129.6980 O   0  0  0  0  0  0  0  0  0  0  0  0
  127.7006  147.6907  135.2450 C   0  0  0  0  0  0  0  0  0  0  0  0
  127.6303  148.9714  135.2809 C   0  0  0  0  0  0  0  0  0  0  0  0
  127.3134  149.7677  134.1380 C   0  0  0  0  0  0  0  0  0  0  0  0
  126.1649  150.7318  134.4512 C   0  0  0  0  0  0  0  0  0  0  0  0
  126.7341  151.5906  135.5630 C   0  0  0  0  0  0  0  0  0  0  0  0
  126.6681  152.8083  135.4765 O   0  0  0  0  0  0  0  0  0  0  0  0
  127.3480  150.8916  136.7109 C   0  0  0  0  0  0  0  0  0  0  0  0
  127.7659  149.6628  136.5844 C   0  0  0  0  0  0  0  0  0  0  0  0
  128.2790  148.9127  137.7803 C   0  0  0  0  0  0  0  0  0  0  0  0
  127.6317  147.4802  137.6605 C   0  0  0  0  0  0  0  0  0  0  0  0
  128.2522  146.9359  136.4593 C   0  0  1  0  0  0  0  0  0  0  0  0
  128.2385  145.5209  136.1304 C   0  0  2  0  0  0  0  0  0  0  0  0
  128.9350  144.6183  137.1442 C   0  0  0  0  0  0  0  0  0  0  0  0
  129.0625  143.3583  136.3151 C   0  0  0  0  0  0  0  0  0  0  0  0
  129.5381  143.9260  134.9706 C   0  0  2  0  0  0  0  0  0  0  0  0
  130.9391  143.6964  134.9794 O   0  0  0  0  0  0  0  0  0  0  0  0
  129.0253  143.0987  133.8256 C   0  0  0  0  0  0  0  0  0  0  0  0
  127.6855  142.8958  133.8068 F   0  0  0  0  0  0  0  0  0  0  0  0
  129.5107  143.6968  132.6583 F   0  0  0  0  0  0  0  0  0  0  0  0
  129.7741  141.7603  133.8809 C   0  0  0  0  0  0  0  0  0  0  0  0
  129.2415  140.9634  132.8799 F   0  0  0  0  0  0  0  0  0  0  0  0
  129.4978  141.1190  135.0751 F   0  0  0  0  0  0  0  0  0  0  0  0
  131.1114  141.8860  133.6759 F   0  0  0  0  0  0  0  0  0  0  0  0
  2  1  1  1
  2  3  1  0
  3  4  1  0
  4  5  1  6
  5  6  2  0
  6  7  1  0
  7  8  2  0
  8  9  1  0
  9 10  2  0
  8 11  1  0
 11 12  1  0
 11 13  2  0
 11 14  2  0
  4 15  1  0
 15 16  2  0
 16 17  1  0
 17 18  1  0
 18 19  1  0
 19 20  2  0
 19 21  1  0
 21 22  2  0
 22 23  1  0
 23 24  1  0
 25 24  1  1
 25 26  1  0
 26 27  1  1
 27 28  1  0
 28 29  1  0
 29 30  1  1
 29 31  1  0
 31 32  1  0
 31 33  1  0
 31 34  1  0
 34 35  1  0
 34 36  1  0
 34 37  1  0
 26  2  1  0
 29  2  1  0
 10  5  1  0
 25 15  1  0
 22 16  1  0
M  END
$$$$
