
     RDKit          3D

 37 41  0  0  0  0  0  0  0  0999 V2000
  187.8664  164.1884  137.0371 C   0  0  0  0  0  0  0  0  0  0  0  0
  187.9511  163.0000  136.0922 C   0  0  2  0  0  0  0  0  0  0  0  0
  186.5780  162.7363  135.6197 C   0  0  0  0  0  0  0  0  0  0  0  0
  185.9942  161.5319  136.3294 C   0  0  2  0  0  0  0  0  0  0  0  0
  184.7895  161.0251  135.7053 C   0  0  0  0  0  0  0  0  0  0  0  0
  183.5721  161.6230  135.9626 C   0  0  0  0  0  0  0  0  0  0  0  0
  182.4092  161.1808  135.3668 C   0  0  0  0  0  0  0  0  0  0  0  0
  182.4135  160.1172  134.4845 C   0  0  0  0  0  0  0  0  0  0  0  0
  183.6294  159.5210  134.2285 C   0  0  0  0  0  0  0  0  0  0  0  0
  184.8021  159.9652  134.8277 C   0  0  0  0  0  0  0  0  0  0  0  0
  180.9272  159.5624  133.7318 S   0  0  0  0  0  6  0  0  0  0  0  0
  180.5005  160.6892  132.4372 C   0  0  0  0  0  0  0  0  0  0  0  0
  179.8544  159.4345  134.7595 O   0  0  0  0  0  0  0  0  0  0  0  0
  181.1932  158.1826  133.1687 O   0  0  0  0  0  0  0  0  0  0  0  0
  186.2873  161.4709  137.7305 C   0  0  0  0  0  0  0  0  0  0  0  0
  185.4285  161.3998  138.6813 C   0  0  0  0  0  0  0  0  0  0  0  0
  184.0173  161.3990  138.4595 C   0  0  0  0  0  0  0  0  0  0  0  0
  183.3579  160.2132  139.1706 C   0  0  0  0  0  0  0  0  0  0  0  0
  183.6720  160.4734  140.6305 C   0  0  0  0  0  0  0  0  0  0  0  0
  182.7703  160.4384  141.4554 O   0  0  0  0  0  0  0  0  0  0  0  0
  185.0789  160.7599  140.9791 C   0  0  0  0  0  0  0  0  0  0  0  0
  185.9067  161.1905  140.0681 C   0  0  0  0  0  0  0  0  0  0  0  0
  187.3625  161.3668  140.3931 C   0  0  0  0  0  0  0  0  0  0  0  0
  188.1241  160.7671  139.1497 C   0  0  0  0  0  0  0  0  0  0  0  0
  187.7669  161.6795  138.0710 C   0  0  1  0  0  0  0  0  0  0  0  0
  188.4933  161.7461  136.8146 C   0  0  2  0  0  0  0  0  0  0  0  0
  189.9601  162.1466  136.9403 C   0  0  0  0  0  0  0  0  0  0  0  0
  190.2553  162.4820  135.4940 C   0  0  0  0  0  0  0  0  0  0  0  0
  189.0126  163.2978  135.1114 C   0  0  2  0  0  0  0  0  0  0  0  0
  189.4500  164.6459  135.1949 O   0  0  0  0  0  0  0  0  0  0  0  0
  188.6648  163.1007  133.6628 C   0  0  0  0  0  0  0  0  0  0  0  0
  188.3309  161.8356  133.3099 F   0  0  0  0  0  0  0  0  0  0  0  0
  187.6712  164.0388  133.3646 F   0  0  0  0  0  0  0  0  0  0  0  0
  189.8727  163.5875  132.8509 C   0  0  0  0  0  0  0  0  0  0  0  0
  190.8274  164.0025  133.7658 F   0  0  0  0  0  0  0  0  0  0  0  0
  189.5234  164.7088  132.1198 F   0  0  0  0  0  0  0  0  0  0  0  0
  190.4123  162.6216  132.0623 F   0  0  0  0  0  0  0  0  0  0  0  0
  2  1  1  1
  2  3  1  0
  3  4  1  0
  4  5  1  1
  5  6  2  0
  6  7  1  0
  7  8  2  0
  8  9  1  0
  9 10  2  0
  8 11  1  0
 11 12  1  0
 11 13  2  0
 11 14  2  0
  4 15  1  0
 15 16  2  0
 16 17  1  0
 17 18  1  0
 18 19  1  0
 19 20  2  0
 19 21  1  0
 21 22  2  0
 22 23  1  0
 23 24  1  0
 25 24  1  1
 25 26  1  0
 26 27  1  1
 27 28  1  0
 28 29  1  0
 29 30  1  6
 29 31  1  0
 31 32  1  0
 31 33  1  0
 31 34  1  0
 34 35  1  0
 34 36  1  0
 34 37  1  0
 26  2  1  0
 29  2  1  0
 10  5  1  0
 25 15  1  0
 22 16  1  0
M  END
$$$$
