
     RDKit          3D

 37 41  0  0  0  0  0  0  0  0999 V2000
  129.9424  143.0809  136.6065 C   0  0  0  0  0  0  0  0  0  0  0  0
  128.9284  142.6489  135.5589 C   0  0  2  0  0  0  0  0  0  0  0  0
  129.1821  143.4714  134.3600 C   0  0  0  0  0  0  0  0  0  0  0  0
  128.1417  144.5658  134.2369 C   0  0  2  0  0  0  0  0  0  0  0  0
  128.1341  145.2083  132.9389 C   0  0  0  0  0  0  0  0  0  0  0  0
  127.0563  145.0454  132.0918 C   0  0  0  0  0  0  0  0  0  0  0  0
  127.0062  145.6620  130.8588 C   0  0  0  0  0  0  0  0  0  0  0  0
  128.0359  146.4714  130.4180 C   0  0  0  0  0  0  0  0  0  0  0  0
  129.1113  146.6332  131.2644 C   0  0  0  0  0  0  0  0  0  0  0  0
  129.1636  146.0128  132.5070 C   0  0  0  0  0  0  0  0  0  0  0  0
  127.9617  147.2514  128.8465 S   0  0  0  0  0  6  0  0  0  0  0  0
  127.7642  148.9914  129.0936 C   0  0  0  0  0  0  0  0  0  0  0  0
  126.8602  146.6571  128.0359 O   0  0  0  0  0  0  0  0  0  0  0  0
  129.2661  146.9606  128.1353 O   0  0  0  0  0  0  0  0  0  0  0  0
  127.8014  145.2012  135.4752 C   0  0  0  0  0  0  0  0  0  0  0  0
  127.8793  146.4566  135.7284 C   0  0  0  0  0  0  0  0  0  0  0  0
  128.3578  147.4150  134.7833 C   0  0  0  0  0  0  0  0  0  0  0  0
  127.3588  148.5655  134.6254 C   0  0  0  0  0  0  0  0  0  0  0  0
  127.3053  149.1640  136.0170 C   0  0  0  0  0  0  0  0  0  0  0  0
  127.4478  150.3700  136.1592 O   0  0  0  0  0  0  0  0  0  0  0  0
  127.0791  148.2361  137.1443 C   0  0  0  0  0  0  0  0  0  0  0  0
  127.3430  146.9659  137.0124 C   0  0  0  0  0  0  0  0  0  0  0  0
  127.0010  146.0049  138.1151 C   0  0  0  0  0  0  0  0  0  0  0  0
  126.3642  144.7643  137.3796 C   0  0  0  0  0  0  0  0  0  0  0  0
  127.4801  144.2256  136.6125 C   0  0  1  0  0  0  0  0  0  0  0  0
  127.4815  142.8875  136.0464 C   0  0  2  0  0  0  0  0  0  0  0  0
  127.3734  141.7578  137.0660 C   0  0  0  0  0  0  0  0  0  0  0  0
  127.7899  140.5914  136.1959 C   0  0  0  0  0  0  0  0  0  0  0  0
  129.0027  141.1785  135.4606 C   0  0  2  0  0  0  0  0  0  0  0  0
  130.1171  140.6545  136.1672 O   0  0  0  0  0  0  0  0  0  0  0  0
  129.1247  140.6019  134.0782 C   0  0  0  0  0  0  0  0  0  0  0  0
  128.0960  140.8751  133.2394 F   0  0  0  0  0  0  0  0  0  0  0  0
  130.3658  141.0178  133.5855 F   0  0  0  0  0  0  0  0  0  0  0  0
  129.2960  139.0863  134.2481 C   0  0  0  0  0  0  0  0  0  0  0  0
  128.6142  138.4877  133.2005 F   0  0  0  0  0  0  0  0  0  0  0  0
  128.6658  138.6717  135.4078 F   0  0  0  0  0  0  0  0  0  0  0  0
  130.5941  138.6866  134.2114 F   0  0  0  0  0  0  0  0  0  0  0  0
  2  1  1  1
  2  3  1  0
  3  4  1  0
  4  5  1  6
  5  6  2  0
  6  7  1  0
  7  8  2  0
  8  9  1  0
  9 10  2  0
  8 11  1  0
 11 12  1  0
 11 13  2  0
 11 14  2  0
  4 15  1  0
 15 16  2  0
 16 17  1  0
 17 18  1  0
 18 19  1  0
 19 20  2  0
 19 21  1  0
 21 22  2  0
 22 23  1  0
 23 24  1  0
 25 24  1  6
 25 26  1  0
 26 27  1  1
 27 28  1  0
 28 29  1  0
 29 30  1  1
 29 31  1  0
 31 32  1  0
 31 33  1  0
 31 34  1  0
 34 35  1  0
 34 36  1  0
 34 37  1  0
 26  2  1  0
 29  2  1  0
 10  5  1  0
 25 15  1  0
 22 16  1  0
M  END
$$$$
