
     RDKit          3D

 37 41  0  0  0  0  0  0  0  0999 V2000
  125.8525  147.5506  136.4279 C   0  0  0  0  0  0  0  0  0  0  0  0
  127.1204  147.8749  135.6536 C   0  0  2  0  0  0  0  0  0  0  0  0
  127.1363  146.9853  134.4760 C   0  0  0  0  0  0  0  0  0  0  0  0
  128.1148  145.8474  134.6833 C   0  0  2  0  0  0  0  0  0  0  0  0
  128.4176  145.1211  133.4673 C   0  0  0  0  0  0  0  0  0  0  0  0
  129.7227  144.7860  133.1676 C   0  0  0  0  0  0  0  0  0  0  0  0
  130.0435  144.0744  132.0303 C   0  0  0  0  0  0  0  0  0  0  0  0
  129.0689  143.6653  131.1400 C   0  0  0  0  0  0  0  0  0  0  0  0
  127.7663  144.0003  131.4403 C   0  0  0  0  0  0  0  0  0  0  0  0
  127.4412  144.7173  132.5857 C   0  0  0  0  0  0  0  0  0  0  0  0
  129.4885  142.7597  129.6952 S   0  0  0  0  0  6  0  0  0  0  0  0
  130.6627  143.7006  128.7658 C   0  0  0  0  0  0  0  0  0  0  0  0
  128.2563  142.4471  128.9159 O   0  0  0  0  0  0  0  0  0  0  0  0
  130.0954  141.4476  130.1443 O   0  0  0  0  0  0  0  0  0  0  0  0
  128.0958  145.2827  135.9999 C   0  0  0  0  0  0  0  0  0  0  0  0
  127.8902  144.0503  136.2923 C   0  0  0  0  0  0  0  0  0  0  0  0
  127.6174  143.0503  135.3094 C   0  0  0  0  0  0  0  0  0  0  0  0
  128.5618  141.8556  135.4755 C   0  0  0  0  0  0  0  0  0  0  0  0
  128.2289  141.3483  136.8646 C   0  0  0  0  0  0  0  0  0  0  0  0
  127.9918  140.1605  137.0305 O   0  0  0  0  0  0  0  0  0  0  0  0
  128.2102  142.3394  137.9603 C   0  0  0  0  0  0  0  0  0  0  0  0
  128.0557  143.6072  137.6965 C   0  0  0  0  0  0  0  0  0  0  0  0
  128.1568  144.6252  138.7963 C   0  0  0  0  0  0  0  0  0  0  0  0
  129.0238  145.7903  138.1828 C   0  0  0  0  0  0  0  0  0  0  0  0
  128.1690  146.3184  137.1271 C   0  0  1  0  0  0  0  0  0  0  0  0
  128.3816  147.6154  136.5080 C   0  0  2  0  0  0  0  0  0  0  0  0
  128.2868  148.8049  137.4586 C   0  0  0  0  0  0  0  0  0  0  0  0
  128.1667  149.9263  136.4489 C   0  0  0  0  0  0  0  0  0  0  0  0
  127.1510  149.3374  135.4600 C   0  0  2  0  0  0  0  0  0  0  0  0
  125.9230  149.9477  135.8278 O   0  0  0  0  0  0  0  0  0  0  0  0
  127.4142  149.8260  134.0635 C   0  0  0  0  0  0  0  0  0  0  0  0
  128.6801  149.6498  133.6128 F   0  0  0  0  0  0  0  0  0  0  0  0
  126.4483  149.2280  133.2478 F   0  0  0  0  0  0  0  0  0  0  0  0
  127.0336  151.3125  134.0393 C   0  0  0  0  0  0  0  0  0  0  0  0
  126.1500  151.5154  135.0874 F   0  0  0  0  0  0  0  0  0  0  0  0
  126.3327  151.5968  132.8809 F   0  0  0  0  0  0  0  0  0  0  0  0
  128.0991  152.1407  134.1977 F   0  0  0  0  0  0  0  0  0  0  0  0
  2  1  1  1
  2  3  1  0
  3  4  1  0
  4  5  1  6
  5  6  2  0
  6  7  1  0
  7  8  2  0
  8  9  1  0
  9 10  2  0
  8 11  1  0
 11 12  1  0
 11 13  2  0
 11 14  2  0
  4 15  1  0
 15 16  2  0
 16 17  1  0
 17 18  1  0
 18 19  1  0
 19 20  2  0
 19 21  1  0
 21 22  2  0
 22 23  1  0
 23 24  1  0
 25 24  1  1
 25 26  1  0
 26 27  1  1
 27 28  1  0
 28 29  1  0
 29 30  1  1
 29 31  1  0
 31 32  1  0
 31 33  1  0
 31 34  1  0
 34 35  1  0
 34 36  1  0
 34 37  1  0
 26  2  1  0
 29  2  1  0
 10  5  1  0
 25 15  1  0
 22 16  1  0
M  END
$$$$
