
     RDKit          3D

 37 41  0  0  0  0  0  0  0  0999 V2000
  132.3351  163.2383  152.1070 C   0  0  0  0  0  0  0  0  0  0  0  0
  133.1895  164.0827  153.0394 C   0  0  2  0  0  0  0  0  0  0  0  0
  133.9782  163.1420  153.8587 C   0  0  0  0  0  0  0  0  0  0  0  0
  133.3953  163.0345  155.2530 C   0  0  2  0  0  0  0  0  0  0  0  0
  134.2810  162.3859  156.1977 C   0  0  0  0  0  0  0  0  0  0  0  0
  134.3498  162.8330  157.5019 C   0  0  0  0  0  0  0  0  0  0  0  0
  135.1647  162.2235  158.4332 C   0  0  0  0  0  0  0  0  0  0  0  0
  135.9492  161.1360  158.0990 C   0  0  0  0  0  0  0  0  0  0  0  0
  135.8798  160.6905  156.7968 C   0  0  0  0  0  0  0  0  0  0  0  0
  135.0593  161.3033  155.8571 C   0  0  0  0  0  0  0  0  0  0  0  0
  136.9830  160.3676  159.2926 S   0  0  0  0  0  6  0  0  0  0  0  0
  138.3735  161.4193  159.5891 C   0  0  0  0  0  0  0  0  0  0  0  0
  137.3794  159.0093  158.8221 O   0  0  0  0  0  0  0  0  0  0  0  0
  136.1663  160.1979  160.5559 O   0  0  0  0  0  0  0  0  0  0  0  0
  131.9641  162.9846  155.2941 C   0  0  0  0  0  0  0  0  0  0  0  0
  131.2538  162.0606  155.8308 C   0  0  0  0  0  0  0  0  0  0  0  0
  131.8179  160.9069  156.4563 C   0  0  0  0  0  0  0  0  0  0  0  0
  131.2531  160.7257  157.8687 C   0  0  0  0  0  0  0  0  0  0  0  0
  129.7704  160.5313  157.6208 C   0  0  0  0  0  0  0  0  0  0  0  0
  129.1937  159.5835  158.1343 O   0  0  0  0  0  0  0  0  0  0  0  0
  129.0940  161.5194  156.7551 C   0  0  0  0  0  0  0  0  0  0  0  0
  129.7856  162.2411  155.9175 C   0  0  0  0  0  0  0  0  0  0  0  0
  129.1163  163.3275  155.1251 C   0  0  0  0  0  0  0  0  0  0  0  0
  130.1116  164.5478  155.2016 C   0  0  0  0  0  0  0  0  0  0  0  0
  131.2751  164.0728  154.4635 C   0  0  1  0  0  0  0  0  0  0  0  0
  132.3140  164.9575  153.9648 C   0  0  2  0  0  0  0  0  0  0  0  0
  131.8424  165.9961  152.9517 C   0  0  0  0  0  0  0  0  0  0  0  0
  133.1808  166.4323  152.3953 C   0  0  0  0  0  0  0  0  0  0  0  0
  133.8863  165.0820  152.2068 C   0  0  2  0  0  0  0  0  0  0  0  0
  133.7420  164.8119  150.8205 O   0  0  0  0  0  0  0  0  0  0  0  0
  135.3685  165.2157  152.4152 C   0  0  0  0  0  0  0  0  0  0  0  0
  135.7506  165.5999  153.6573 F   0  0  0  0  0  0  0  0  0  0  0  0
  135.9344  164.0016  152.0129 F   0  0  0  0  0  0  0  0  0  0  0  0
  135.8719  166.2122  151.3622 C   0  0  0  0  0  0  0  0  0  0  0  0
  135.3251  167.4441  151.6850 F   0  0  0  0  0  0  0  0  0  0  0  0
  135.3640  165.8763  150.1200 F   0  0  0  0  0  0  0  0  0  0  0  0
  137.2256  166.3266  151.3372 F   0  0  0  0  0  0  0  0  0  0  0  0
  2  1  1  6
  2  3  1  0
  3  4  1  0
  4  5  1  6
  5  6  2  0
  6  7  1  0
  7  8  2  0
  8  9  1  0
  9 10  2  0
  8 11  1  0
 11 12  1  0
 11 13  2  0
 11 14  2  0
  4 15  1  0
 15 16  2  0
 16 17  1  0
 17 18  1  0
 18 19  1  0
 19 20  2  0
 19 21  1  0
 21 22  2  0
 22 23  1  0
 23 24  1  0
 25 24  1  1
 25 26  1  0
 26 27  1  6
 27 28  1  0
 28 29  1  0
 29 30  1  6
 29 31  1  0
 31 32  1  0
 31 33  1  0
 31 34  1  0
 34 35  1  0
 34 36  1  0
 34 37  1  0
 26  2  1  0
 29  2  1  0
 10  5  1  0
 25 15  1  0
 22 16  1  0
M  END
$$$$
