
     RDKit          3D

 37 41  0  0  0  0  0  0  0  0999 V2000
  148.0322  169.7790  132.4200 C   0  0  0  0  0  0  0  0  0  0  0  0
  146.8991  169.0940  131.6721 C   0  0  2  0  0  0  0  0  0  0  0  0
  146.9695  167.6608  132.0176 C   0  0  0  0  0  0  0  0  0  0  0  0
  147.5740  166.8686  130.8765 C   0  0  2  0  0  0  0  0  0  0  0  0
  147.3895  165.4382  131.0088 C   0  0  0  0  0  0  0  0  0  0  0  0
  147.0404  164.6803  129.9091 C   0  0  0  0  0  0  0  0  0  0  0  0
  146.8799  163.3129  129.9948 C   0  0  0  0  0  0  0  0  0  0  0  0
  147.0623  162.6417  131.1889 C   0  0  0  0  0  0  0  0  0  0  0  0
  147.4107  163.3993  132.2861 C   0  0  0  0  0  0  0  0  0  0  0  0
  147.5728  164.7771  132.2017 C   0  0  0  0  0  0  0  0  0  0  0  0
  146.8554  160.9006  131.2868 S   0  0  0  0  0  6  0  0  0  0  0  0
  146.5536  160.2801  129.6584 C   0  0  0  0  0  0  0  0  0  0  0  0
  145.7566  160.5725  132.2399 O   0  0  0  0  0  0  0  0  0  0  0  0
  148.1383  160.3236  131.8459 O   0  0  0  0  0  0  0  0  0  0  0  0
  148.6919  167.5023  130.2427 C   0  0  0  0  0  0  0  0  0  0  0  0
  149.8664  167.0043  130.1049 C   0  0  0  0  0  0  0  0  0  0  0  0
  150.2323  165.7180  130.6070 C   0  0  0  0  0  0  0  0  0  0  0  0
  150.8722  164.8682  129.5047 C   0  0  0  0  0  0  0  0  0  0  0  0
  152.1036  165.6682  129.1288 C   0  0  0  0  0  0  0  0  0  0  0  0
  153.1910  165.1115  129.0800 O   0  0  0  0  0  0  0  0  0  0  0  0
  151.9143  167.1042  128.8369 C   0  0  0  0  0  0  0  0  0  0  0  0
  150.8654  167.7336  129.2889 C   0  0  0  0  0  0  0  0  0  0  0  0
  150.6116  169.1600  128.8928 C   0  0  0  0  0  0  0  0  0  0  0  0
  149.0699  169.2154  128.5677 C   0  0  0  0  0  0  0  0  0  0  0  0
  148.4493  168.9669  129.8627 C   0  0  1  0  0  0  0  0  0  0  0  0
  147.0544  169.2602  130.1437 C   0  0  2  0  0  0  0  0  0  0  0  0
  146.6674  170.7301  130.0129 C   0  0  0  0  0  0  0  0  0  0  0  0
  145.3338  170.7049  130.7286 C   0  0  0  0  0  0  0  0  0  0  0  0
  145.6660  169.8514  131.9605 C   0  0  2  0  0  0  0  0  0  0  0  0
  145.8578  170.8048  132.9949 O   0  0  0  0  0  0  0  0  0  0  0  0
  144.4718  169.0512  132.3986 C   0  0  0  0  0  0  0  0  0  0  0  0
  144.3441  167.8311  131.8227 F   0  0  0  0  0  0  0  0  0  0  0  0
  144.5213  169.0013  133.7954 F   0  0  0  0  0  0  0  0  0  0  0  0
  143.2358  169.9154  132.1142 C   0  0  0  0  0  0  0  0  0  0  0  0
  143.2338  170.1732  130.7525 F   0  0  0  0  0  0  0  0  0  0  0  0
  143.3687  171.1417  132.7406 F   0  0  0  0  0  0  0  0  0  0  0  0
  142.0681  169.3055  132.4465 F   0  0  0  0  0  0  0  0  0  0  0  0
  2  1  1  1
  2  3  1  0
  3  4  1  0
  4  5  1  1
  5  6  2  0
  6  7  1  0
  7  8  2  0
  8  9  1  0
  9 10  2  0
  8 11  1  0
 11 12  1  0
 11 13  2  0
 11 14  2  0
  4 15  1  0
 15 16  2  0
 16 17  1  0
 17 18  1  0
 18 19  1  0
 19 20  2  0
 19 21  1  0
 21 22  2  0
 22 23  1  0
 23 24  1  0
 25 24  1  6
 25 26  1  0
 26 27  1  1
 27 28  1  0
 28 29  1  0
 29 30  1  1
 29 31  1  0
 31 32  1  0
 31 33  1  0
 31 34  1  0
 34 35  1  0
 34 36  1  0
 34 37  1  0
 26  2  1  0
 29  2  1  0
 10  5  1  0
 25 15  1  0
 22 16  1  0
M  END
$$$$
