
     RDKit          3D

 37 41  0  0  0  0  0  0  0  0999 V2000
  148.4319  167.1767  134.9180 C   0  0  0  0  0  0  0  0  0  0  0  0
  147.3172  167.4563  133.9221 C   0  0  2  0  0  0  0  0  0  0  0  0
  147.4894  166.4968  132.8139 C   0  0  0  0  0  0  0  0  0  0  0  0
  148.1001  167.1818  131.6085 C   0  0  2  0  0  0  0  0  0  0  0  0
  148.0100  166.3970  130.3945 C   0  0  0  0  0  0  0  0  0  0  0  0
  147.2199  166.8285  129.3480 C   0  0  0  0  0  0  0  0  0  0  0  0
  147.1301  166.1178  128.1692 C   0  0  0  0  0  0  0  0  0  0  0  0
  147.8295  164.9402  127.9852 C   0  0  0  0  0  0  0  0  0  0  0  0
  148.6179  164.5104  129.0306 C   0  0  0  0  0  0  0  0  0  0  0  0
  148.7097  165.2251  130.2191 C   0  0  0  0  0  0  0  0  0  0  0  0
  147.7078  164.0434  126.4804 S   0  0  0  0  0  6  0  0  0  0  0  0
  149.2795  164.0914  125.6711 C   0  0  0  0  0  0  0  0  0  0  0  0
  146.6114  164.6063  125.6409 O   0  0  0  0  0  0  0  0  0  0  0  0
  147.3345  162.6190  126.8317 O   0  0  0  0  0  0  0  0  0  0  0  0
  149.1525  168.1025  131.9209 C   0  0  0  0  0  0  0  0  0  0  0  0
  150.3499  168.0679  131.4612 C   0  0  0  0  0  0  0  0  0  0  0  0
  150.8134  167.0551  130.5668 C   0  0  0  0  0  0  0  0  0  0  0  0
  151.4645  167.6814  129.3297 C   0  0  0  0  0  0  0  0  0  0  0  0
  152.6291  168.4568  129.9129 C   0  0  0  0  0  0  0  0  0  0  0  0
  153.7466  168.3110  129.4388 O   0  0  0  0  0  0  0  0  0  0  0  0
  152.3401  169.3628  131.0437 C   0  0  0  0  0  0  0  0  0  0  0  0
  151.2712  169.1868  131.7697 C   0  0  0  0  0  0  0  0  0  0  0  0
  150.9147  170.1769  132.8415 C   0  0  0  0  0  0  0  0  0  0  0  0
  149.3618  170.3964  132.6811 C   0  0  0  0  0  0  0  0  0  0  0  0
  148.8054  169.0965  133.0344 C   0  0  1  0  0  0  0  0  0  0  0  0
  147.4061  168.8969  133.3702 C   0  0  2  0  0  0  0  0  0  0  0  0
  146.9237  169.6635  134.5978 C   0  0  0  0  0  0  0  0  0  0  0  0
  145.6212  168.9361  134.8542 C   0  0  0  0  0  0  0  0  0  0  0  0
  146.0506  167.4728  134.6789 C   0  0  2  0  0  0  0  0  0  0  0  0
  146.2201  167.0049  136.0086 O   0  0  0  0  0  0  0  0  0  0  0  0
  144.9254  166.6445  134.1257 C   0  0  0  0  0  0  0  0  0  0  0  0
  144.6477  166.8397  132.8137 F   0  0  0  0  0  0  0  0  0  0  0  0
  145.2255  165.3141  134.4358 F   0  0  0  0  0  0  0  0  0  0  0  0
  143.6930  166.9449  134.9896 C   0  0  0  0  0  0  0  0  0  0  0  0
  142.6560  166.1752  134.4868 F   0  0  0  0  0  0  0  0  0  0  0  0
  143.3137  168.2644  134.8203 F   0  0  0  0  0  0  0  0  0  0  0  0
  143.8708  166.6377  136.3012 F   0  0  0  0  0  0  0  0  0  0  0  0
  2  1  1  1
  2  3  1  0
  3  4  1  0
  4  5  1  6
  5  6  2  0
  6  7  1  0
  7  8  2  0
  8  9  1  0
  9 10  2  0
  8 11  1  0
 11 12  1  0
 11 13  2  0
 11 14  2  0
  4 15  1  0
 15 16  2  0
 16 17  1  0
 17 18  1  0
 18 19  1  0
 19 20  2  0
 19 21  1  0
 21 22  2  0
 22 23  1  0
 23 24  1  0
 25 24  1  6
 25 26  1  0
 26 27  1  1
 27 28  1  0
 28 29  1  0
 29 30  1  1
 29 31  1  0
 31 32  1  0
 31 33  1  0
 31 34  1  0
 34 35  1  0
 34 36  1  0
 34 37  1  0
 26  2  1  0
 29  2  1  0
 10  5  1  0
 25 15  1  0
 22 16  1  0
M  END
$$$$
