
     RDKit          3D

 37 41  0  0  0  0  0  0  0  0999 V2000
  202.3654  158.7032  121.5641 C   0  0  0  0  0  0  0  0  0  0  0  0
  202.8317  160.0231  120.9699 C   0  0  2  0  0  0  0  0  0  0  0  0
  203.7219  159.6881  119.8414 C   0  0  0  0  0  0  0  0  0  0  0  0
  205.1720  159.8900  120.2308 C   0  0  2  0  0  0  0  0  0  0  0  0
  206.0766  159.8871  119.0997 C   0  0  0  0  0  0  0  0  0  0  0  0
  207.0081  160.8957  118.9554 C   0  0  0  0  0  0  0  0  0  0  0  0
  207.9001  160.9108  117.9032 C   0  0  0  0  0  0  0  0  0  0  0  0
  207.8991  159.9138  116.9462 C   0  0  0  0  0  0  0  0  0  0  0  0
  206.9688  158.9076  117.0914 C   0  0  0  0  0  0  0  0  0  0  0  0
  206.0693  158.8907  118.1507 C   0  0  0  0  0  0  0  0  0  0  0  0
  209.0392  159.9430  115.6109 S   0  0  0  0  0  6  0  0  0  0  0  0
  208.3188  160.8569  114.2792 C   0  0  0  0  0  0  0  0  0  0  0  0
  209.4018  158.5498  115.2222 O   0  0  0  0  0  0  0  0  0  0  0  0
  210.2966  160.6260  116.1049 O   0  0  0  0  0  0  0  0  0  0  0  0
  205.4986  159.4396  121.5511 C   0  0  0  0  0  0  0  0  0  0  0  0
  206.4057  158.5850  121.8567 C   0  0  0  0  0  0  0  0  0  0  0  0
  207.2188  157.9284  120.8829 C   0  0  0  0  0  0  0  0  0  0  0  0
  208.7038  158.0758  121.2289 C   0  0  0  0  0  0  0  0  0  0  0  0
  208.8112  157.3837  122.5732 C   0  0  0  0  0  0  0  0  0  0  0  0
  209.6778  156.5390  122.7476 O   0  0  0  0  0  0  0  0  0  0  0  0
  207.8423  157.7783  123.6165 C   0  0  0  0  0  0  0  0  0  0  0  0
  206.7154  158.3451  123.2858 C   0  0  0  0  0  0  0  0  0  0  0  0
  205.7854  158.8546  124.3496 C   0  0  0  0  0  0  0  0  0  0  0  0
  205.3130  160.2642  123.8247 C   0  0  0  0  0  0  0  0  0  0  0  0
  204.5361  159.9320  122.6373 C   0  0  1  0  0  0  0  0  0  0  0  0
  203.6133  160.8604  122.0072 C   0  0  2  0  0  0  0  0  0  0  0  0
  202.4523  161.3108  122.8886 C   0  0  0  0  0  0  0  0  0  0  0  0
  201.5482  161.9064  121.8307 C   0  0  0  0  0  0  0  0  0  0  0  0
  201.6280  160.8415  120.7280 C   0  0  2  0  0  0  0  0  0  0  0  0
  200.4338  160.0911  120.8909 O   0  0  0  0  0  0  0  0  0  0  0  0
  201.5012  161.4659  119.3670 C   0  0  0  0  0  0  0  0  0  0  0  0
  202.3946  162.4463  119.0895 F   0  0  0  0  0  0  0  0  0  0  0  0
  201.5306  160.4137  118.4461 F   0  0  0  0  0  0  0  0  0  0  0  0
  200.0652  161.9966  119.2593 C   0  0  0  0  0  0  0  0  0  0  0  0
  199.9307  162.9825  120.2239 F   0  0  0  0  0  0  0  0  0  0  0  0
  199.1708  160.9974  119.5992 F   0  0  0  0  0  0  0  0  0  0  0  0
  199.7820  162.5319  118.0430 F   0  0  0  0  0  0  0  0  0  0  0  0
  2  1  1  1
  2  3  1  0
  3  4  1  0
  4  5  1  6
  5  6  2  0
  6  7  1  0
  7  8  2  0
  8  9  1  0
  9 10  2  0
  8 11  1  0
 11 12  1  0
 11 13  2  0
 11 14  2  0
  4 15  1  0
 15 16  2  0
 16 17  1  0
 17 18  1  0
 18 19  1  0
 19 20  2  0
 19 21  1  0
 21 22  2  0
 22 23  1  0
 23 24  1  0
 25 24  1  1
 25 26  1  0
 26 27  1  1
 27 28  1  0
 28 29  1  0
 29 30  1  1
 29 31  1  0
 31 32  1  0
 31 33  1  0
 31 34  1  0
 34 35  1  0
 34 36  1  0
 34 37  1  0
 26  2  1  0
 29  2  1  0
 10  5  1  0
 25 15  1  0
 22 16  1  0
M  END
$$$$
