
     RDKit          3D

 37 41  0  0  0  0  0  0  0  0999 V2000
  149.9510  177.4003  152.5405 C   0  0  0  0  0  0  0  0  0  0  0  0
  148.5656  176.8226  152.2975 C   0  0  2  0  0  0  0  0  0  0  0  0
  148.5981  175.4280  152.7796 C   0  0  0  0  0  0  0  0  0  0  0  0
  148.6908  174.4651  151.6138 C   0  0  2  0  0  0  0  0  0  0  0  0
  148.4128  173.0915  151.9794 C   0  0  0  0  0  0  0  0  0  0  0  0
  149.1927  172.4548  152.9238 C   0  0  0  0  0  0  0  0  0  0  0  0
  148.9410  171.1553  153.3124 C   0  0  0  0  0  0  0  0  0  0  0  0
  147.8941  170.4336  152.7711 C   0  0  0  0  0  0  0  0  0  0  0  0
  147.1162  171.0703  151.8284 C   0  0  0  0  0  0  0  0  0  0  0  0
  147.3683  172.3795  151.4357 C   0  0  0  0  0  0  0  0  0  0  0  0
  147.5827  168.7800  153.2731 S   0  0  0  0  0  6  0  0  0  0  0  0
  147.5448  168.7289  155.0404 C   0  0  0  0  0  0  0  0  0  0  0  0
  148.6127  167.8707  152.6936 O   0  0  0  0  0  0  0  0  0  0  0  0
  146.2396  168.3792  152.7012 O   0  0  0  0  0  0  0  0  0  0  0  0
  149.5862  174.8783  150.5744 C   0  0  0  0  0  0  0  0  0  0  0  0
  150.5841  174.2090  150.1244 C   0  0  0  0  0  0  0  0  0  0  0  0
  150.9615  172.9306  150.6379 C   0  0  0  0  0  0  0  0  0  0  0  0
  151.0945  171.9091  149.5042 C   0  0  0  0  0  0  0  0  0  0  0  0
  152.2013  172.4920  148.6480 C   0  0  0  0  0  0  0  0  0  0  0  0
  153.1421  171.7846  148.3173 O   0  0  0  0  0  0  0  0  0  0  0  0
  152.0762  173.9106  148.2545 C   0  0  0  0  0  0  0  0  0  0  0  0
  151.3165  174.7181  148.9411 C   0  0  0  0  0  0  0  0  0  0  0  0
  151.0947  176.1278  148.4723 C   0  0  0  0  0  0  0  0  0  0  0  0
  149.5494  176.3737  148.6649 C   0  0  0  0  0  0  0  0  0  0  0  0
  149.3844  176.3254  150.1121 C   0  0  1  0  0  0  0  0  0  0  0  0
  148.2077  176.8361  150.7942 C   0  0  2  0  0  0  0  0  0  0  0  0
  147.9563  178.3298  150.6120 C   0  0  0  0  0  0  0  0  0  0  0  0
  146.9514  178.5541  151.7216 C   0  0  0  0  0  0  0  0  0  0  0  0
  147.5914  177.7687  152.8747 C   0  0  2  0  0  0  0  0  0  0  0  0
  148.2232  178.7687  153.6599 O   0  0  0  0  0  0  0  0  0  0  0  0
  146.5406  177.1856  153.7769 C   0  0  0  0  0  0  0  0  0  0  0  0
  145.3314  177.7962  153.7348 F   0  0  0  0  0  0  0  0  0  0  0  0
  146.4812  175.8197  153.4821 F   0  0  0  0  0  0  0  0  0  0  0  0
  147.1147  177.2206  155.1998 C   0  0  0  0  0  0  0  0  0  0  0  0
  147.3278  178.5541  155.5114 F   0  0  0  0  0  0  0  0  0  0  0  0
  148.3584  176.6150  155.2171 F   0  0  0  0  0  0  0  0  0  0  0  0
  146.2806  176.6817  156.1272 F   0  0  0  0  0  0  0  0  0  0  0  0
  2  1  1  6
  2  3  1  0
  3  4  1  0
  4  5  1  1
  5  6  2  0
  6  7  1  0
  7  8  2  0
  8  9  1  0
  9 10  2  0
  8 11  1  0
 11 12  1  0
 11 13  2  0
 11 14  2  0
  4 15  1  0
 15 16  2  0
 16 17  1  0
 17 18  1  0
 18 19  1  0
 19 20  2  0
 19 21  1  0
 21 22  2  0
 22 23  1  0
 23 24  1  0
 25 24  1  6
 25 26  1  0
 26 27  1  6
 27 28  1  0
 28 29  1  0
 29 30  1  1
 29 31  1  0
 31 32  1  0
 31 33  1  0
 31 34  1  0
 34 35  1  0
 34 36  1  0
 34 37  1  0
 26  2  1  0
 29  2  1  0
 10  5  1  0
 25 15  1  0
 22 16  1  0
M  END
$$$$
