
     RDKit          3D

 52 54  0  0  0  0  0  0  0  0999 V2000
  184.9926  153.4674  127.7042 C   0  0  0  0  0  0  0  0  0  0  0  0
  185.9464  154.5473  127.3174 C   0  0  0  0  0  0  0  0  0  0  0  0
  187.2630  154.4821  128.0583 C   0  0  1  0  0  0  0  0  0  0  0  0
  186.9679  154.6103  129.4168 O   0  0  0  0  0  0  0  0  0  0  0  0
  187.7141  155.1594  130.4100 C   0  0  0  0  0  0  0  0  0  0  0  0
  187.7468  154.5534  131.5116 O   0  0  0  0  0  0  0  0  0  0  0  0
  188.5050  156.4308  130.3038 C   0  0  2  0  0  0  0  0  0  0  0  0
  189.3946  156.5049  131.5267 C   0  0  0  0  0  0  0  0  0  0  0  0
  187.6442  157.6264  130.2940 C   0  0  1  0  0  0  0  0  0  0  0  0
  187.1622  157.8341  131.5799 O   0  0  0  0  0  0  0  0  0  0  0  0
  186.2872  156.8884  132.0457 C   0  0  1  0  0  0  0  0  0  0  0  0
  186.8095  155.9610  133.0862 C   0  0  0  0  0  0  0  0  0  0  0  0
  185.6269  155.3167  133.8208 C   0  0  1  0  0  0  0  0  0  0  0  0
  184.7488  154.7303  132.7473 C   0  0  0  0  0  0  0  0  0  0  0  0
  186.1706  154.3111  134.5890 O   0  0  0  0  0  0  0  0  0  0  0  0
  185.3742  153.8628  135.6232 C   0  0  0  0  0  0  0  0  0  0  0  0
  184.9469  156.3943  134.6042 C   0  0  1  0  0  0  0  0  0  0  0  0
  185.4359  156.3785  135.9292 O   0  0  0  0  0  0  0  0  0  0  0  0
  185.2991  157.7329  133.9528 C   0  0  2  0  0  0  0  0  0  0  0  0
  184.2714  158.7563  134.3988 C   0  0  0  0  0  0  0  0  0  0  0  0
  185.2018  157.5924  132.5885 O   0  0  0  0  0  0  0  0  0  0  0  0
  188.0479  158.8430  129.5710 C   0  0  2  0  0  0  0  0  0  0  0  0
  187.5409  158.7373  128.1451 C   0  0  0  0  0  0  0  0  0  0  0  0
  189.3839  159.4512  129.7035 C   0  0  1  0  0  0  0  0  0  0  0  0
  189.9613  159.3871  130.9437 O   0  0  0  0  0  0  0  0  0  0  0  0
  190.9567  160.2807  131.2546 C   0  0  2  0  0  0  0  0  0  0  0  0
  192.2520  159.8025  131.1753 O   0  0  0  0  0  0  0  0  0  0  0  0
  193.1118  160.3398  132.1006 C   0  0  2  0  0  0  0  0  0  0  0  0
  194.5015  159.7509  132.0201 C   0  0  0  0  0  0  0  0  0  0  0  0
  192.6271  160.1126  133.5159 C   0  0  0  0  0  0  0  0  0  0  0  0
  191.4163  160.9568  133.6791 C   0  0  1  0  0  0  0  0  0  0  0  0
  190.6604  161.1250  132.4305 C   0  0  1  0  0  0  0  0  0  0  0  0
  190.6839  162.5159  132.1112 O   0  0  0  0  0  0  0  0  0  0  0  0
  190.5839  160.5165  134.7986 N   0  0  0  0  0  0  0  0  0  0  0  0
  189.2855  161.1859  134.6032 C   0  0  0  0  0  0  0  0  0  0  0  0
  191.1666  161.0567  136.0141 C   0  0  0  0  0  0  0  0  0  0  0  0
  190.3438  159.3297  128.5708 C   0  0  2  0  0  0  0  0  0  0  0  0
  191.2315  160.5874  128.6724 C   0  0  0  0  0  0  0  0  0  0  0  0
  189.6844  159.5099  127.3327 O   0  0  0  0  0  0  0  0  0  0  0  0
  191.2512  158.1945  128.4200 C   0  0  0  0  0  0  0  0  0  0  0  0
  191.1339  157.4787  127.0647 C   0  0  1  0  0  0  0  0  0  0  0  0
  192.1427  157.9715  126.0729 C   0  0  0  0  0  0  0  0  0  0  0  0
  191.3156  155.9895  127.2398 C   0  0  0  0  0  0  0  0  0  0  0  0
  190.2338  155.2433  126.5775 N   0  0  0  0  0  0  0  0  0  0  0  0
  190.3217  155.3129  125.1523 C   0  0  0  0  0  0  0  0  0  0  0  0
  190.2754  153.8501  126.9598 C   0  0  2  0  0  0  0  0  0  0  0  0
  191.3000  153.1107  126.0904 C   0  0  0  0  0  0  0  0  0  0  0  0
  188.9319  153.2558  126.6513 C   0  0  1  0  0  0  0  0  0  0  0  0
  189.1144  151.9384  126.2112 O   0  0  0  0  0  0  0  0  0  0  0  0
  188.0034  153.1841  127.8442 C   0  0  1  0  0  0  0  0  0  0  0  0
  188.7272  152.7460  129.1045 C   0  0  0  0  0  0  0  0  0  0  0  0
  187.0567  152.1942  127.5873 O   0  0  0  0  0  0  0  0  0  0  0  0
  1  2  1  0
  3  2  1  6
  3  4  1  0
  4  5  1  0
  5  6  2  0
  5  7  1  0
  7  8  1  1
  7  9  1  0
  9 10  1  1
 11 10  1  1
 11 12  1  0
 12 13  1  0
 13 14  1  6
 13 15  1  0
 15 16  1  0
 13 17  1  0
 17 18  1  1
 17 19  1  0
 19 20  1  1
 19 21  1  0
  9 22  1  0
 22 23  1  6
 22 24  1  0
 24 25  1  1
 26 25  1  1
 26 27  1  0
 27 28  1  0
 28 29  1  1
 28 30  1  0
 30 31  1  0
 31 32  1  0
 32 33  1  6
 31 34  1  1
 34 35  1  0
 34 36  1  0
 24 37  1  0
 37 38  1  1
 37 39  1  0
 37 40  1  0
 40 41  1  0
 41 42  1  6
 41 43  1  0
 43 44  1  0
 44 45  1  0
 44 46  1  0
 46 47  1  6
 46 48  1  0
 48 49  1  1
 48 50  1  0
 50 51  1  1
 50 52  1  0
 50  3  1  0
 21 11  1  0
 32 26  1  0
M  END
$$$$
