
     RDKit          3D

 52 54  0  0  0  0  0  0  0  0999 V2000
  108.4994  163.8717  159.7538 C   0  0  0  0  0  0  0  0  0  0  0  0
  108.2695  163.1153  158.4889 C   0  0  0  0  0  0  0  0  0  0  0  0
  107.8102  163.9860  157.3411 C   0  0  1  0  0  0  0  0  0  0  0  0
  107.7314  165.2908  157.8313 O   0  0  0  0  0  0  0  0  0  0  0  0
  106.8979  166.2981  157.4631 C   0  0  0  0  0  0  0  0  0  0  0  0
  107.3938  167.4489  157.3546 O   0  0  0  0  0  0  0  0  0  0  0  0
  105.4321  166.1538  157.1738 C   0  0  2  0  0  0  0  0  0  0  0  0
  104.9758  167.4468  156.5317 C   0  0  0  0  0  0  0  0  0  0  0  0
  104.6376  165.9480  158.3973 C   0  0  1  0  0  0  0  0  0  0  0  0
  104.5571  167.1550  159.0797 O   0  0  0  0  0  0  0  0  0  0  0  0
  104.4515  167.0604  160.4423 C   0  0  1  0  0  0  0  0  0  0  0  0
  105.2722  168.0154  161.2362 C   0  0  0  0  0  0  0  0  0  0  0  0
  104.6982  168.1079  162.6557 C   0  0  1  0  0  0  0  0  0  0  0  0
  104.6089  166.6899  163.1543 C   0  0  0  0  0  0  0  0  0  0  0  0
  105.6306  168.8090  163.3880 O   0  0  0  0  0  0  0  0  0  0  0  0
  106.3243  169.7755  162.6885 C   0  0  0  0  0  0  0  0  0  0  0  0
  103.3629  168.7744  162.5552 C   0  0  1  0  0  0  0  0  0  0  0  0
  103.5167  170.1545  162.8127 O   0  0  0  0  0  0  0  0  0  0  0  0
  102.8559  168.5819  161.1246 C   0  0  2  0  0  0  0  0  0  0  0  0
  101.3545  168.8013  161.1258 C   0  0  0  0  0  0  0  0  0  0  0  0
  103.1001  167.2826  160.7471 O   0  0  0  0  0  0  0  0  0  0  0  0
  103.3955  165.1593  158.3687 C   0  0  2  0  0  0  0  0  0  0  0  0
  103.7509  163.7059  158.6199 C   0  0  0  0  0  0  0  0  0  0  0  0
  102.3338  165.3669  157.3674 C   0  0  1  0  0  0  0  0  0  0  0  0
  102.1197  166.6589  156.9669 O   0  0  0  0  0  0  0  0  0  0  0  0
  101.5397  166.8819  155.7421 C   0  0  2  0  0  0  0  0  0  0  0  0
  102.4007  166.9408  154.6614 O   0  0  0  0  0  0  0  0  0  0  0  0
  102.0157  167.8171  153.6776 C   0  0  2  0  0  0  0  0  0  0  0  0
  103.0098  167.8963  152.5418 C   0  0  0  0  0  0  0  0  0  0  0  0
  101.8548  169.2242  154.2105 C   0  0  0  0  0  0  0  0  0  0  0  0
  100.6633  169.1974  155.0964 C   0  0  1  0  0  0  0  0  0  0  0  0
  100.4701  167.9011  155.7605 C   0  0  1  0  0  0  0  0  0  0  0  0
   99.2235  167.3781  155.3027 O   0  0  0  0  0  0  0  0  0  0  0  0
  100.6418  170.3268  156.0259 N   0  0  0  0  0  0  0  0  0  0  0  0
   99.8803  171.3829  155.3355 C   0  0  0  0  0  0  0  0  0  0  0  0
  102.0067  170.8029  156.1651 C   0  0  0  0  0  0  0  0  0  0  0  0
  102.1514  164.3512  156.2932 C   0  0  2  0  0  0  0  0  0  0  0  0
  100.6523  164.4236  155.9355 C   0  0  0  0  0  0  0  0  0  0  0  0
  102.2876  163.0424  156.8115 O   0  0  0  0  0  0  0  0  0  0  0  0
  102.8807  164.3968  155.0279 C   0  0  0  0  0  0  0  0  0  0  0  0
  103.6564  163.1087  154.7089 C   0  0  1  0  0  0  0  0  0  0  0  0
  102.8783  162.1806  153.8273 C   0  0  0  0  0  0  0  0  0  0  0  0
  104.9645  163.4380  154.0293 C   0  0  0  0  0  0  0  0  0  0  0  0
  106.0875  162.7434  154.6790 N   0  0  0  0  0  0  0  0  0  0  0  0
  106.0619  161.3336  154.4428 C   0  0  0  0  0  0  0  0  0  0  0  0
  107.3474  163.2552  154.1895 C   0  0  2  0  0  0  0  0  0  0  0  0
  107.7021  162.5639  152.8671 C   0  0  0  0  0  0  0  0  0  0  0  0
  108.4076  162.8712  155.1803 C   0  0  1  0  0  0  0  0  0  0  0  0
  109.5866  162.5751  154.4839 O   0  0  0  0  0  0  0  0  0  0  0  0
  108.7552  163.9675  156.1640 C   0  0  1  0  0  0  0  0  0  0  0  0
  108.8336  165.3285  155.4964 C   0  0  0  0  0  0  0  0  0  0  0  0
  110.0348  163.7105  156.6526 O   0  0  0  0  0  0  0  0  0  0  0  0
  1  2  1  0
  3  2  1  1
  3  4  1  0
  4  5  1  0
  5  6  2  0
  5  7  1  0
  7  8  1  1
  7  9  1  0
  9 10  1  6
 11 10  1  6
 11 12  1  0
 12 13  1  0
 13 14  1  1
 13 15  1  0
 15 16  1  0
 13 17  1  0
 17 18  1  6
 17 19  1  0
 19 20  1  1
 19 21  1  0
  9 22  1  0
 22 23  1  6
 22 24  1  0
 24 25  1  6
 26 25  1  1
 26 27  1  0
 27 28  1  0
 28 29  1  6
 28 30  1  0
 30 31  1  0
 31 32  1  0
 32 33  1  6
 31 34  1  1
 34 35  1  0
 34 36  1  0
 24 37  1  0
 37 38  1  6
 37 39  1  0
 37 40  1  0
 40 41  1  0
 41 42  1  6
 41 43  1  0
 43 44  1  0
 44 45  1  0
 44 46  1  0
 46 47  1  6
 46 48  1  0
 48 49  1  6
 48 50  1  0
 50 51  1  6
 50 52  1  0
 50  3  1  0
 21 11  1  0
 32 26  1  0
M  END
$$$$
