
     RDKit          3D

 52 54  0  0  0  0  0  0  0  0999 V2000
  173.7388  146.7607  128.3755 C   0  0  0  0  0  0  0  0  0  0  0  0
  172.2606  146.6110  128.2421 C   0  0  0  0  0  0  0  0  0  0  0  0
  171.8303  146.0438  126.9081 C   0  0  1  0  0  0  0  0  0  0  0  0
  172.6237  144.9193  126.6733 O   0  0  0  0  0  0  0  0  0  0  0  0
  173.0537  144.4025  125.4931 C   0  0  0  0  0  0  0  0  0  0  0  0
  173.0191  143.1520  125.3624 O   0  0  0  0  0  0  0  0  0  0  0  0
  173.5676  145.1989  124.3292 C   0  0  2  0  0  0  0  0  0  0  0  0
  173.6558  144.2553  123.1485 C   0  0  0  0  0  0  0  0  0  0  0  0
  174.9129  145.7464  124.5759 C   0  0  1  0  0  0  0  0  0  0  0  0
  175.8338  144.7101  124.4911 O   0  0  0  0  0  0  0  0  0  0  0  0
  176.3548  144.2803  125.6830 C   0  0  1  0  0  0  0  0  0  0  0  0
  176.7087  142.8369  125.7669 C   0  0  0  0  0  0  0  0  0  0  0  0
  177.6857  142.6284  126.9310 C   0  0  1  0  0  0  0  0  0  0  0  0
  177.0282  143.2519  128.1337 C   0  0  0  0  0  0  0  0  0  0  0  0
  177.7794  141.2644  127.0970 O   0  0  0  0  0  0  0  0  0  0  0  0
  178.7101  140.6354  126.2952 C   0  0  0  0  0  0  0  0  0  0  0  0
  178.9718  143.2960  126.5599 C   0  0  1  0  0  0  0  0  0  0  0  0
  179.8450  142.3355  126.0031 O   0  0  0  0  0  0  0  0  0  0  0  0
  178.6546  144.3594  125.5068 C   0  0  2  0  0  0  0  0  0  0  0  0
  179.8055  145.3477  125.4770 C   0  0  0  0  0  0  0  0  0  0  0  0
  177.5202  145.0322  125.8952 O   0  0  0  0  0  0  0  0  0  0  0  0
  175.3374  147.0148  123.9620 C   0  0  2  0  0  0  0  0  0  0  0  0
  174.9469  148.1465  124.8939 C   0  0  0  0  0  0  0  0  0  0  0  0
  175.1636  147.3127  122.5290 C   0  0  1  0  0  0  0  0  0  0  0  0
  175.3148  146.2599  121.6662 O   0  0  0  0  0  0  0  0  0  0  0  0
  176.5764  145.7641  121.4456 C   0  0  2  0  0  0  0  0  0  0  0  0
  177.4347  146.5780  120.7291 O   0  0  0  0  0  0  0  0  0  0  0  0
  178.3147  145.9016  119.9215 C   0  0  2  0  0  0  0  0  0  0  0  0
  179.1957  146.8253  119.1122 C   0  0  0  0  0  0  0  0  0  0  0  0
  177.5968  145.0108  118.9311 C   0  0  0  0  0  0  0  0  0  0  0  0
  176.9879  143.9144  119.7264 C   0  0  1  0  0  0  0  0  0  0  0  0
  176.6041  144.3323  121.0817 C   0  0  1  0  0  0  0  0  0  0  0  0
  177.3862  143.5623  121.9942 O   0  0  0  0  0  0  0  0  0  0  0  0
  175.9059  143.2449  119.0047 N   0  0  0  0  0  0  0  0  0  0  0  0
  174.9526  144.3136  118.6563 C   0  0  0  0  0  0  0  0  0  0  0  0
  175.2365  142.3621  119.9436 C   0  0  0  0  0  0  0  0  0  0  0  0
  174.1234  148.2980  122.1213 C   0  0  2  0  0  0  0  0  0  0  0  0
  174.6603  148.9167  120.8139 C   0  0  0  0  0  0  0  0  0  0  0  0
  174.1034  149.4014  123.0057 O   0  0  0  0  0  0  0  0  0  0  0  0
  172.7355  147.9226  121.8614 C   0  0  0  0  0  0  0  0  0  0  0  0
  171.7103  148.7147  122.6887 C   0  0  1  0  0  0  0  0  0  0  0  0
  171.1670  149.8940  121.9418 C   0  0  0  0  0  0  0  0  0  0  0  0
  170.5584  147.8239  123.0898 C   0  0  0  0  0  0  0  0  0  0  0  0
  170.2844  147.9309  124.5318 N   0  0  0  0  0  0  0  0  0  0  0  0
  169.7207  149.1968  124.8834 C   0  0  0  0  0  0  0  0  0  0  0  0
  169.3603  146.9000  124.9468 C   0  0  2  0  0  0  0  0  0  0  0  0
  167.9240  147.3512  124.6538 C   0  0  0  0  0  0  0  0  0  0  0  0
  169.4779  146.7599  126.4367 C   0  0  1  0  0  0  0  0  0  0  0  0
  168.2091  146.4845  126.9631 O   0  0  0  0  0  0  0  0  0  0  0  0
  170.3796  145.6273  126.8779 C   0  0  1  0  0  0  0  0  0  0  0  0
  170.1800  144.3792  126.0373 C   0  0  0  0  0  0  0  0  0  0  0  0
  170.0138  145.2732  128.1752 O   0  0  0  0  0  0  0  0  0  0  0  0
  1  2  1  0
  3  2  1  1
  3  4  1  0
  4  5  1  0
  5  6  2  0
  5  7  1  0
  7  8  1  6
  7  9  1  0
  9 10  1  6
 11 10  1  6
 11 12  1  0
 12 13  1  0
 13 14  1  1
 13 15  1  0
 15 16  1  0
 13 17  1  0
 17 18  1  6
 17 19  1  0
 19 20  1  1
 19 21  1  0
  9 22  1  0
 22 23  1  1
 22 24  1  0
 24 25  1  6
 26 25  1  6
 26 27  1  0
 27 28  1  0
 28 29  1  6
 28 30  1  0
 30 31  1  0
 31 32  1  0
 32 33  1  1
 31 34  1  6
 34 35  1  0
 34 36  1  0
 24 37  1  0
 37 38  1  6
 37 39  1  0
 37 40  1  0
 40 41  1  0
 41 42  1  6
 41 43  1  0
 43 44  1  0
 44 45  1  0
 44 46  1  0
 46 47  1  1
 46 48  1  0
 48 49  1  1
 48 50  1  0
 50 51  1  6
 50 52  1  0
 50  3  1  0
 21 11  1  0
 32 26  1  0
M  END
$$$$
