
     RDKit          3D

 52 54  0  0  0  0  0  0  0  0999 V2000
  119.7303  166.5153  145.8438 C   0  0  0  0  0  0  0  0  0  0  0  0
  120.6667  167.0183  144.7973 C   0  0  0  0  0  0  0  0  0  0  0  0
  119.9935  167.8726  143.7467 C   0  0  1  0  0  0  0  0  0  0  0  0
  119.1231  168.7304  144.4216 O   0  0  0  0  0  0  0  0  0  0  0  0
  117.9428  169.2583  144.0056 C   0  0  0  0  0  0  0  0  0  0  0  0
  117.7233  170.4673  144.2739 O   0  0  0  0  0  0  0  0  0  0  0  0
  116.8761  168.5195  143.2509 C   0  0  2  0  0  0  0  0  0  0  0  0
  115.8884  169.5523  142.7509 C   0  0  0  0  0  0  0  0  0  0  0  0
  116.1454  167.5660  144.1038 C   0  0  1  0  0  0  0  0  0  0  0  0
  115.2968  168.2812  144.9390 O   0  0  0  0  0  0  0  0  0  0  0  0
  115.5135  168.1218  146.2823 C   0  0  1  0  0  0  0  0  0  0  0  0
  115.0484  169.2288  147.1621 C   0  0  0  0  0  0  0  0  0  0  0  0
  114.9228  168.7064  148.5989 C   0  0  1  0  0  0  0  0  0  0  0  0
  116.2511  168.0752  148.9225 C   0  0  0  0  0  0  0  0  0  0  0  0
  114.7252  169.8213  149.3832 O   0  0  0  0  0  0  0  0  0  0  0  0
  115.7050  170.7888  149.2900 C   0  0  0  0  0  0  0  0  0  0  0  0
  113.7926  167.7269  148.6210 C   0  0  1  0  0  0  0  0  0  0  0  0
  112.6178  168.3889  149.0410 O   0  0  0  0  0  0  0  0  0  0  0  0
  113.5982  167.2119  147.1935 C   0  0  2  0  0  0  0  0  0  0  0  0
  112.8275  165.9070  147.2667 C   0  0  0  0  0  0  0  0  0  0  0  0
  114.8349  166.9509  146.6525 O   0  0  0  0  0  0  0  0  0  0  0  0
  115.5776  166.3300  143.5419 C   0  0  2  0  0  0  0  0  0  0  0  0
  116.6360  165.2456  143.6163 C   0  0  0  0  0  0  0  0  0  0  0  0
  114.7595  166.3055  142.3160 C   0  0  1  0  0  0  0  0  0  0  0  0
  113.9304  167.3771  142.1165 O   0  0  0  0  0  0  0  0  0  0  0  0
  112.5811  167.2122  142.3127 C   0  0  2  0  0  0  0  0  0  0  0  0
  111.9592  166.2709  141.5128 O   0  0  0  0  0  0  0  0  0  0  0  0
  110.6677  166.5838  141.1694 C   0  0  2  0  0  0  0  0  0  0  0  0
  110.0421  165.5611  140.2489 C   0  0  0  0  0  0  0  0  0  0  0  0
  110.5832  167.9161  140.4567 C   0  0  0  0  0  0  0  0  0  0  0  0
  110.9012  168.9503  141.4738 C   0  0  1  0  0  0  0  0  0  0  0  0
  111.8421  168.4780  142.4989 C   0  0  1  0  0  0  0  0  0  0  0  0
  111.1538  168.5180  143.7487 O   0  0  0  0  0  0  0  0  0  0  0  0
  111.3056  170.2171  140.8644 N   0  0  0  0  0  0  0  0  0  0  0  0
  111.3232  171.1913  141.9701 C   0  0  0  0  0  0  0  0  0  0  0  0
  110.2482  170.6201  139.9541 C   0  0  0  0  0  0  0  0  0  0  0  0
  115.3508  165.7444  141.0691 C   0  0  2  0  0  0  0  0  0  0  0  0
  114.1475  165.1870  140.2808 C   0  0  0  0  0  0  0  0  0  0  0  0
  116.1069  164.5828  141.3509 O   0  0  0  0  0  0  0  0  0  0  0  0
  116.1246  166.5500  140.1273 C   0  0  0  0  0  0  0  0  0  0  0  0
  117.5256  165.9904  139.8328 C   0  0  1  0  0  0  0  0  0  0  0  0
  117.5518  165.1464  138.5956 C   0  0  0  0  0  0  0  0  0  0  0  0
  118.5178  167.1176  139.6702 C   0  0  0  0  0  0  0  0  0  0  0  0
  119.7141  166.8926  140.4971 N   0  0  0  0  0  0  0  0  0  0  0  0
  120.5168  165.8160  140.0066 C   0  0  0  0  0  0  0  0  0  0  0  0
  120.5346  168.0819  140.5304 C   0  0  2  0  0  0  0  0  0  0  0  0
  121.4228  168.1267  139.2809 C   0  0  0  0  0  0  0  0  0  0  0  0
  121.4514  167.9663  141.7133 C   0  0  1  0  0  0  0  0  0  0  0  0
  122.6895  168.5298  141.3781 O   0  0  0  0  0  0  0  0  0  0  0  0
  120.9644  168.7029  142.9424 C   0  0  1  0  0  0  0  0  0  0  0  0
  120.3784  170.0604  142.5985 C   0  0  0  0  0  0  0  0  0  0  0  0
  122.0706  168.9611  143.7497 O   0  0  0  0  0  0  0  0  0  0  0  0
  1  2  1  0
  3  2  1  1
  3  4  1  0
  4  5  1  0
  5  6  2  0
  5  7  1  0
  7  8  1  1
  7  9  1  0
  9 10  1  6
 11 10  1  6
 11 12  1  0
 12 13  1  0
 13 14  1  1
 13 15  1  0
 15 16  1  0
 13 17  1  0
 17 18  1  6
 17 19  1  0
 19 20  1  1
 19 21  1  0
  9 22  1  0
 22 23  1  6
 22 24  1  0
 24 25  1  6
 26 25  1  6
 26 27  1  0
 27 28  1  0
 28 29  1  6
 28 30  1  0
 30 31  1  0
 31 32  1  0
 32 33  1  1
 31 34  1  6
 34 35  1  0
 34 36  1  0
 24 37  1  0
 37 38  1  6
 37 39  1  0
 37 40  1  0
 40 41  1  0
 41 42  1  6
 41 43  1  0
 43 44  1  0
 44 45  1  0
 44 46  1  0
 46 47  1  6
 46 48  1  0
 48 49  1  6
 48 50  1  0
 50 51  1  6
 50 52  1  0
 50  3  1  0
 21 11  1  0
 32 26  1  0
M  END
$$$$
