
     RDKit          3D

 52 54  0  0  0  0  0  0  0  0999 V2000
  186.6438  160.4408  128.8516 C   0  0  0  0  0  0  0  0  0  0  0  0
  187.7816  159.4864  128.7113 C   0  0  0  0  0  0  0  0  0  0  0  0
  188.1845  158.8334  130.0143 C   0  0  1  0  0  0  0  0  0  0  0  0
  187.0063  158.5766  130.7178 O   0  0  0  0  0  0  0  0  0  0  0  0
  186.7958  158.5469  132.0593 C   0  0  0  0  0  0  0  0  0  0  0  0
  186.0704  157.6239  132.5107 O   0  0  0  0  0  0  0  0  0  0  0  0
  187.3569  159.5242  133.0509 C   0  0  2  0  0  0  0  0  0  0  0  0
  187.1102  158.9502  134.4300 C   0  0  0  0  0  0  0  0  0  0  0  0
  186.6936  160.8377  132.9791 C   0  0  1  0  0  0  0  0  0  0  0  0
  185.4312  160.7264  133.5475 O   0  0  0  0  0  0  0  0  0  0  0  0
  184.3778  160.8255  132.6773 C   0  0  1  0  0  0  0  0  0  0  0  0
  183.1363  160.0976  133.0576 C   0  0  0  0  0  0  0  0  0  0  0  0
  181.9545  160.6805  132.2722 C   0  0  1  0  0  0  0  0  0  0  0  0
  182.3656  160.6402  130.8242 C   0  0  0  0  0  0  0  0  0  0  0  0
  180.9029  159.8179  132.4896 O   0  0  0  0  0  0  0  0  0  0  0  0
  180.6385  159.5325  133.8138 C   0  0  0  0  0  0  0  0  0  0  0  0
  181.7271  162.0712  132.7738 C   0  0  1  0  0  0  0  0  0  0  0  0
  180.7163  162.0454  133.7599 O   0  0  0  0  0  0  0  0  0  0  0  0
  183.0342  162.5556  133.4043 C   0  0  2  0  0  0  0  0  0  0  0  0
  182.9893  164.0708  133.4712 C   0  0  0  0  0  0  0  0  0  0  0  0
  184.0750  162.1923  132.5825 O   0  0  0  0  0  0  0  0  0  0  0  0
  187.4234  162.0725  133.3084 C   0  0  2  0  0  0  0  0  0  0  0  0
  188.0848  162.5841  132.0425 C   0  0  0  0  0  0  0  0  0  0  0  0
  188.2347  162.2259  134.5294 C   0  0  1  0  0  0  0  0  0  0  0  0
  187.7638  161.6035  135.6548 O   0  0  0  0  0  0  0  0  0  0  0  0
  186.9953  162.3254  136.5348 C   0  0  2  0  0  0  0  0  0  0  0  0
  187.0560  163.7014  136.4106 O   0  0  0  0  0  0  0  0  0  0  0  0
  186.9413  164.3829  137.5965 C   0  0  2  0  0  0  0  0  0  0  0  0
  187.0702  165.8793  137.4272 C   0  0  0  0  0  0  0  0  0  0  0  0
  188.0056  163.9665  138.5885 C   0  0  0  0  0  0  0  0  0  0  0  0
  187.6767  162.5747  138.9883 C   0  0  1  0  0  0  0  0  0  0  0  0
  187.0217  161.8091  137.9189 C   0  0  1  0  0  0  0  0  0  0  0  0
  185.7180  161.4662  138.3880 O   0  0  0  0  0  0  0  0  0  0  0  0
  188.8267  161.8812  139.5683 N   0  0  0  0  0  0  0  0  0  0  0  0
  188.2700  161.0353  140.6391 C   0  0  0  0  0  0  0  0  0  0  0  0
  189.6644  162.8827  140.2044 C   0  0  0  0  0  0  0  0  0  0  0  0
  189.7194  162.2380  134.4082 C   0  0  2  0  0  0  0  0  0  0  0  0
  190.2020  163.1083  135.5871 C   0  0  0  0  0  0  0  0  0  0  0  0
  190.1247  162.9865  133.2788 O   0  0  0  0  0  0  0  0  0  0  0  0
  190.5261  161.0201  134.4362 C   0  0  0  0  0  0  0  0  0  0  0  0
  191.4446  160.8528  133.2151 C   0  0  1  0  0  0  0  0  0  0  0  0
  192.8300  161.3614  133.4723 C   0  0  0  0  0  0  0  0  0  0  0  0
  191.5297  159.3982  132.8173 C   0  0  0  0  0  0  0  0  0  0  0  0
  191.2805  159.2284  131.3769 N   0  0  0  0  0  0  0  0  0  0  0  0
  192.3498  159.7412  130.5783 C   0  0  0  0  0  0  0  0  0  0  0  0
  191.1150  157.8290  131.0558 C   0  0  2  0  0  0  0  0  0  0  0  0
  192.4922  157.1770  130.8810 C   0  0  0  0  0  0  0  0  0  0  0  0
  190.4226  157.7486  129.7263 C   0  0  1  0  0  0  0  0  0  0  0  0
  190.9354  156.6534  129.0189 O   0  0  0  0  0  0  0  0  0  0  0  0
  188.9278  157.5333  129.8242 C   0  0  1  0  0  0  0  0  0  0  0  0
  188.5662  156.5269  130.9016 C   0  0  0  0  0  0  0  0  0  0  0  0
  188.4993  156.9725  128.6224 O   0  0  0  0  0  0  0  0  0  0  0  0
  1  2  1  0
  3  2  1  6
  3  4  1  0
  4  5  1  0
  5  6  2  0
  5  7  1  0
  7  8  1  1
  7  9  1  0
  9 10  1  1
 11 10  1  1
 11 12  1  0
 12 13  1  0
 13 14  1  6
 13 15  1  0
 15 16  1  0
 13 17  1  0
 17 18  1  1
 17 19  1  0
 19 20  1  6
 19 21  1  0
  9 22  1  0
 22 23  1  6
 22 24  1  0
 24 25  1  1
 26 25  1  6
 26 27  1  0
 27 28  1  0
 28 29  1  6
 28 30  1  0
 30 31  1  0
 31 32  1  0
 32 33  1  1
 31 34  1  6
 34 35  1  0
 34 36  1  0
 24 37  1  0
 37 38  1  1
 37 39  1  0
 37 40  1  0
 40 41  1  0
 41 42  1  1
 41 43  1  0
 43 44  1  0
 44 45  1  0
 44 46  1  0
 46 47  1  6
 46 48  1  0
 48 49  1  6
 48 50  1  0
 50 51  1  1
 50 52  1  0
 50  3  1  0
 21 11  1  0
 32 26  1  0
M  END
$$$$
