
     RDKit          3D

 52 54  0  0  0  0  0  0  0  0999 V2000
  184.8512  153.3408  125.5963 C   0  0  0  0  0  0  0  0  0  0  0  0
  186.3343  153.5002  125.5901 C   0  0  0  0  0  0  0  0  0  0  0  0
  186.8428  154.4489  126.6523 C   0  0  1  0  0  0  0  0  0  0  0  0
  186.3175  155.7074  126.3537 O   0  0  0  0  0  0  0  0  0  0  0  0
  186.8464  156.9365  126.5868 C   0  0  0  0  0  0  0  0  0  0  0  0
  186.0682  157.8310  127.0065 O   0  0  0  0  0  0  0  0  0  0  0  0
  188.2841  157.3184  126.3858 C   0  0  2  0  0  0  0  0  0  0  0  0
  188.4796  158.6727  127.0338 C   0  0  0  0  0  0  0  0  0  0  0  0
  188.6368  157.4405  124.9606 C   0  0  1  0  0  0  0  0  0  0  0  0
  188.0799  158.6131  124.4667 O   0  0  0  0  0  0  0  0  0  0  0  0
  188.9715  159.5440  124.0028 C   0  0  1  0  0  0  0  0  0  0  0  0
  189.0961  159.6595  122.5240 C   0  0  0  0  0  0  0  0  0  0  0  0
  189.7322  161.0124  122.1799 C   0  0  1  0  0  0  0  0  0  0  0  0
  190.9991  161.0868  122.9902 C   0  0  0  0  0  0  0  0  0  0  0  0
  190.0323  160.9505  120.8371 O   0  0  0  0  0  0  0  0  0  0  0  0
  190.7885  161.9986  120.3531 C   0  0  0  0  0  0  0  0  0  0  0  0
  188.7453  162.0756  122.5445 C   0  0  1  0  0  0  0  0  0  0  0  0
  188.0054  162.4306  121.3949 O   0  0  0  0  0  0  0  0  0  0  0  0
  187.7979  161.4884  123.5924 C   0  0  2  0  0  0  0  0  0  0  0  0
  187.1276  162.6410  124.3168 C   0  0  0  0  0  0  0  0  0  0  0  0
  188.5433  160.7817  124.5062 O   0  0  0  0  0  0  0  0  0  0  0  0
  190.0005  157.1472  124.4912 C   0  0  2  0  0  0  0  0  0  0  0  0
  190.0791  155.6695  124.1568 C   0  0  0  0  0  0  0  0  0  0  0  0
  191.2079  157.6956  125.1348 C   0  0  1  0  0  0  0  0  0  0  0  0
  191.1083  158.9684  125.6302 O   0  0  0  0  0  0  0  0  0  0  0  0
  190.1451  159.2359  126.5719 C   0  0  2  0  0  0  0  0  0  0  0  0
  189.3876  160.3741  126.3630 O   0  0  0  0  0  0  0  0  0  0  0  0
  189.0051  161.0188  127.5128 C   0  0  2  0  0  0  0  0  0  0  0  0
  188.2294  162.2876  127.2426 C   0  0  0  0  0  0  0  0  0  0  0  0
  190.1964  161.4120  128.3590 C   0  0  0  0  0  0  0  0  0  0  0  0
  190.7697  160.1453  128.8804 C   0  0  1  0  0  0  0  0  0  0  0  0
  190.5869  159.0116  127.9638 C   0  0  1  0  0  0  0  0  0  0  0  0
  189.7692  158.0558  128.6384 O   0  0  0  0  0  0  0  0  0  0  0  0
  192.1546  160.3077  129.3227 N   0  0  0  0  0  0  0  0  0  0  0  0
  192.8993  160.7241  128.1210 C   0  0  0  0  0  0  0  0  0  0  0  0
  192.6484  158.9952  129.7003 C   0  0  0  0  0  0  0  0  0  0  0  0
  192.0668  156.7858  125.9433 C   0  0  2  0  0  0  0  0  0  0  0  0
  193.4857  157.3802  125.8273 C   0  0  0  0  0  0  0  0  0  0  0  0
  192.2005  155.5280  125.3106 O   0  0  0  0  0  0  0  0  0  0  0  0
  191.8381  156.5365  127.3647 C   0  0  0  0  0  0  0  0  0  0  0  0
  191.6856  155.0487  127.7198 C   0  0  1  0  0  0  0  0  0  0  0  0
  192.9753  154.4383  128.1758 C   0  0  0  0  0  0  0  0  0  0  0  0
  190.6550  154.8719  128.8097 C   0  0  0  0  0  0  0  0  0  0  0  0
  189.6726  153.8382  128.4460 N   0  0  0  0  0  0  0  0  0  0  0  0
  190.2383  152.5253  128.4585 C   0  0  0  0  0  0  0  0  0  0  0  0
  188.5601  153.8537  129.3685 C   0  0  2  0  0  0  0  0  0  0  0  0
  188.9231  153.0488  130.6225 C   0  0  0  0  0  0  0  0  0  0  0  0
  187.4154  153.1409  128.7090 C   0  0  1  0  0  0  0  0  0  0  0  0
  186.7096  152.4259  129.6855 O   0  0  0  0  0  0  0  0  0  0  0  0
  186.4153  154.0647  128.0481 C   0  0  1  0  0  0  0  0  0  0  0  0
  186.1257  155.2908  128.8950 C   0  0  0  0  0  0  0  0  0  0  0  0
  185.2058  153.3796  127.9469 O   0  0  0  0  0  0  0  0  0  0  0  0
  1  2  1  0
  3  2  1  6
  3  4  1  0
  4  5  1  0
  5  6  2  0
  5  7  1  0
  7  8  1  1
  7  9  1  0
  9 10  1  1
 11 10  1  6
 11 12  1  0
 12 13  1  0
 13 14  1  1
 13 15  1  0
 15 16  1  0
 13 17  1  0
 17 18  1  6
 17 19  1  0
 19 20  1  1
 19 21  1  0
  9 22  1  0
 22 23  1  1
 22 24  1  0
 24 25  1  1
 26 25  1  6
 26 27  1  0
 27 28  1  0
 28 29  1  6
 28 30  1  0
 30 31  1  0
 31 32  1  0
 32 33  1  1
 31 34  1  6
 34 35  1  0
 34 36  1  0
 24 37  1  0
 37 38  1  1
 37 39  1  0
 37 40  1  0
 40 41  1  0
 41 42  1  1
 41 43  1  0
 43 44  1  0
 44 45  1  0
 44 46  1  0
 46 47  1  1
 46 48  1  0
 48 49  1  1
 48 50  1  0
 50 51  1  1
 50 52  1  0
 50  3  1  0
 21 11  1  0
 32 26  1  0
M  END
$$$$
