
     RDKit          3D

 52 54  0  0  0  0  0  0  0  0999 V2000
  128.6564  140.1416  137.8976 C   0  0  0  0  0  0  0  0  0  0  0  0
  128.4739  139.0966  136.8488 C   0  0  0  0  0  0  0  0  0  0  0  0
  129.7118  138.8582  136.0139 C   0  0  1  0  0  0  0  0  0  0  0  0
  129.9191  140.0152  135.2606 O   0  0  0  0  0  0  0  0  0  0  0  0
  130.4725  140.1499  134.0276 C   0  0  0  0  0  0  0  0  0  0  0  0
  131.2644  141.1110  133.8508 O   0  0  0  0  0  0  0  0  0  0  0  0
  130.2189  139.2468  132.8557 C   0  0  2  0  0  0  0  0  0  0  0  0
  131.2459  139.5913  131.7979 C   0  0  0  0  0  0  0  0  0  0  0  0
  128.8806  139.4479  132.2734 C   0  0  1  0  0  0  0  0  0  0  0  0
  128.8812  140.6442  131.5678 O   0  0  0  0  0  0  0  0  0  0  0  0
  127.8673  141.5135  131.8727 C   0  0  1  0  0  0  0  0  0  0  0  0
  128.2463  142.7217  132.6553 C   0  0  0  0  0  0  0  0  0  0  0  0
  127.1504  143.7835  132.4976 C   0  0  1  0  0  0  0  0  0  0  0  0
  125.8606  143.0977  132.8627 C   0  0  0  0  0  0  0  0  0  0  0  0
  127.4449  144.7607  133.4225 O   0  0  0  0  0  0  0  0  0  0  0  0
  126.6401  145.8809  133.3733 C   0  0  0  0  0  0  0  0  0  0  0  0
  127.1799  144.2485  131.0763 C   0  0  1  0  0  0  0  0  0  0  0  0
  127.9601  145.4228  130.9922 O   0  0  0  0  0  0  0  0  0  0  0  0
  127.8359  143.1465  130.2421 C   0  0  2  0  0  0  0  0  0  0  0  0
  127.4473  143.3624  128.7914 C   0  0  0  0  0  0  0  0  0  0  0  0
  127.3296  141.9340  130.6469 O   0  0  0  0  0  0  0  0  0  0  0  0
  128.1630  138.3380  131.6262 C   0  0  2  0  0  0  0  0  0  0  0  0
  127.3515  137.6163  132.6856 C   0  0  0  0  0  0  0  0  0  0  0  0
  128.7841  137.4553  130.6224 C   0  0  1  0  0  0  0  0  0  0  0  0
  129.6811  138.0410  129.7692 O   0  0  0  0  0  0  0  0  0  0  0  0
  129.5271  137.8503  128.4179 C   0  0  2  0  0  0  0  0  0  0  0  0
  129.6792  136.5527  127.9641 O   0  0  0  0  0  0  0  0  0  0  0  0
  130.2355  136.4516  126.7133 C   0  0  2  0  0  0  0  0  0  0  0  0
  130.4387  135.0190  126.2767 C   0  0  0  0  0  0  0  0  0  0  0  0
  131.5910  137.1208  126.6460 C   0  0  0  0  0  0  0  0  0  0  0  0
  131.3388  138.5794  126.7649 C   0  0  1  0  0  0  0  0  0  0  0  0
  130.1627  138.8940  127.5875 C   0  0  1  0  0  0  0  0  0  0  0  0
  129.2217  139.5503  126.7384 O   0  0  0  0  0  0  0  0  0  0  0  0
  132.5362  139.3148  127.1713 N   0  0  0  0  0  0  0  0  0  0  0  0
  133.2842  139.5573  125.9248 C   0  0  0  0  0  0  0  0  0  0  0  0
  133.3401  138.4220  127.9874 C   0  0  0  0  0  0  0  0  0  0  0  0
  129.1241  136.0571  131.0077 C   0  0  2  0  0  0  0  0  0  0  0  0
  129.0226  135.2528  129.6951 C   0  0  0  0  0  0  0  0  0  0  0  0
  128.0993  135.4922  131.8021 O   0  0  0  0  0  0  0  0  0  0  0  0
  130.4001  135.6919  131.6185 C   0  0  0  0  0  0  0  0  0  0  0  0
  130.2605  134.9469  132.9558 C   0  0  1  0  0  0  0  0  0  0  0  0
  130.3124  133.4595  132.7856 C   0  0  0  0  0  0  0  0  0  0  0  0
  131.3580  135.3634  133.9062 C   0  0  0  0  0  0  0  0  0  0  0  0
  130.8078  135.7330  135.2201 N   0  0  0  0  0  0  0  0  0  0  0  0
  130.3098  134.6005  135.9366 C   0  0  0  0  0  0  0  0  0  0  0  0
  131.8234  136.3638  136.0322 C   0  0  2  0  0  0  0  0  0  0  0  0
  132.6804  135.2867  136.7088 C   0  0  0  0  0  0  0  0  0  0  0  0
  131.1245  137.1163  137.1270 C   0  0  1  0  0  0  0  0  0  0  0  0
  131.8947  137.0289  138.2940 O   0  0  0  0  0  0  0  0  0  0  0  0
  130.9461  138.5918  136.8412 C   0  0  1  0  0  0  0  0  0  0  0  0
  132.1813  139.2024  136.2042 C   0  0  0  0  0  0  0  0  0  0  0  0
  130.7867  139.2451  138.0619 O   0  0  0  0  0  0  0  0  0  0  0  0
  1  2  1  0
  3  2  1  1
  3  4  1  0
  4  5  1  0
  5  6  2  0
  5  7  1  0
  7  8  1  6
  7  9  1  0
  9 10  1  6
 11 10  1  6
 11 12  1  0
 12 13  1  0
 13 14  1  1
 13 15  1  0
 15 16  1  0
 13 17  1  0
 17 18  1  1
 17 19  1  0
 19 20  1  6
 19 21  1  0
  9 22  1  0
 22 23  1  1
 22 24  1  0
 24 25  1  1
 26 25  1  1
 26 27  1  0
 27 28  1  0
 28 29  1  1
 28 30  1  0
 30 31  1  0
 31 32  1  0
 32 33  1  6
 31 34  1  1
 34 35  1  0
 34 36  1  0
 24 37  1  0
 37 38  1  6
 37 39  1  0
 37 40  1  0
 40 41  1  0
 41 42  1  6
 41 43  1  0
 43 44  1  0
 44 45  1  0
 44 46  1  0
 46 47  1  1
 46 48  1  0
 48 49  1  1
 48 50  1  0
 50 51  1  6
 50 52  1  0
 50  3  1  0
 21 11  1  0
 32 26  1  0
M  END
$$$$
