
     RDKit          3D

 52 54  0  0  0  0  0  0  0  0999 V2000
  188.8042  153.6679  131.3244 C   0  0  0  0  0  0  0  0  0  0  0  0
  188.6025  154.8507  132.2107 C   0  0  0  0  0  0  0  0  0  0  0  0
  188.3525  156.1355  131.4535 C   0  0  1  0  0  0  0  0  0  0  0  0
  187.3738  155.8563  130.4978 O   0  0  0  0  0  0  0  0  0  0  0  0
  187.1908  156.4063  129.2695 C   0  0  0  0  0  0  0  0  0  0  0  0
  186.0109  156.6733  128.9251 O   0  0  0  0  0  0  0  0  0  0  0  0
  188.2797  156.7235  128.2862 C   0  0  2  0  0  0  0  0  0  0  0  0
  187.6618  157.5743  127.1969 C   0  0  0  0  0  0  0  0  0  0  0  0
  188.8364  155.5129  127.6577 C   0  0  1  0  0  0  0  0  0  0  0  0
  187.9146  155.0289  126.7385 O   0  0  0  0  0  0  0  0  0  0  0  0
  187.5211  153.7294  126.9207 C   0  0  1  0  0  0  0  0  0  0  0  0
  186.4355  153.2369  126.0293 C   0  0  0  0  0  0  0  0  0  0  0  0
  186.4510  151.7030  126.0230 C   0  0  1  0  0  0  0  0  0  0  0  0
  186.4022  151.2873  127.4695 C   0  0  0  0  0  0  0  0  0  0  0  0
  185.2925  151.3229  125.3823 O   0  0  0  0  0  0  0  0  0  0  0  0
  184.9840  149.9805  125.4688 C   0  0  0  0  0  0  0  0  0  0  0  0
  187.7076  151.2717  125.3359 C   0  0  1  0  0  0  0  0  0  0  0  0
  187.4229  151.0103  123.9774 O   0  0  0  0  0  0  0  0  0  0  0  0
  188.7060  152.4271  125.4285 C   0  0  2  0  0  0  0  0  0  0  0  0
  190.0958  151.8660  125.1921 C   0  0  0  0  0  0  0  0  0  0  0  0
  188.6609  152.9407  126.7031 O   0  0  0  0  0  0  0  0  0  0  0  0
  190.2413  155.4648  127.2221 C   0  0  2  0  0  0  0  0  0  0  0  0
  191.0825  154.9788  128.3875 C   0  0  0  0  0  0  0  0  0  0  0  0
  190.8691  156.5244  126.4124 C   0  0  1  0  0  0  0  0  0  0  0  0
  190.0718  157.1277  125.4765 O   0  0  0  0  0  0  0  0  0  0  0  0
  190.3257  156.8969  124.1467 C   0  0  2  0  0  0  0  0  0  0  0  0
  191.6529  156.9492  123.7613 O   0  0  0  0  0  0  0  0  0  0  0  0
  191.8561  157.4369  122.4945 C   0  0  2  0  0  0  0  0  0  0  0  0
  193.3203  157.5329  122.1316 C   0  0  0  0  0  0  0  0  0  0  0  0
  191.2772  158.8250  122.3277 C   0  0  0  0  0  0  0  0  0  0  0  0
  189.8015  158.6663  122.3743 C   0  0  1  0  0  0  0  0  0  0  0  0
  189.3701  157.5525  123.2300 C   0  0  1  0  0  0  0  0  0  0  0  0
  188.7036  156.6120  122.3883 O   0  0  0  0  0  0  0  0  0  0  0  0
  189.1211  159.9238  122.6835 N   0  0  0  0  0  0  0  0  0  0  0  0
  189.2327  160.7364  121.4590 C   0  0  0  0  0  0  0  0  0  0  0  0
  189.8921  160.5945  123.7154 C   0  0  0  0  0  0  0  0  0  0  0  0
  191.8546  157.4346  127.0602 C   0  0  2  0  0  0  0  0  0  0  0  0
  192.8081  157.8539  125.9221 C   0  0  0  0  0  0  0  0  0  0  0  0
  192.7040  156.7152  127.9326 O   0  0  0  0  0  0  0  0  0  0  0  0
  191.4649  158.6639  127.7469 C   0  0  0  0  0  0  0  0  0  0  0  0
  191.9618  158.7510  129.1989 C   0  0  1  0  0  0  0  0  0  0  0  0
  193.2503  159.5063  129.3140 C   0  0  0  0  0  0  0  0  0  0  0  0
  190.9270  159.4248  130.0686 C   0  0  0  0  0  0  0  0  0  0  0  0
  190.6595  158.6347  131.2810 N   0  0  0  0  0  0  0  0  0  0  0  0
  191.7614  158.6506  132.1918 C   0  0  0  0  0  0  0  0  0  0  0  0
  189.5006  159.1509  131.9733 C   0  0  2  0  0  0  0  0  0  0  0  0
  189.9155  160.3364  132.8534 C   0  0  0  0  0  0  0  0  0  0  0  0
  189.0078  158.0742  132.8959 C   0  0  1  0  0  0  0  0  0  0  0  0
  188.5300  158.6727  134.0691 O   0  0  0  0  0  0  0  0  0  0  0  0
  187.8627  157.2599  132.3336 C   0  0  1  0  0  0  0  0  0  0  0  0
  186.8482  158.1268  131.6099 C   0  0  0  0  0  0  0  0  0  0  0  0
  187.1786  156.6908  133.4061 O   0  0  0  0  0  0  0  0  0  0  0  0
  1  2  1  0
  3  2  1  1
  3  4  1  0
  4  5  1  0
  5  6  2  0
  5  7  1  0
  7  8  1  6
  7  9  1  0
  9 10  1  6
 11 10  1  6
 11 12  1  0
 12 13  1  0
 13 14  1  1
 13 15  1  0
 15 16  1  0
 13 17  1  0
 17 18  1  6
 17 19  1  0
 19 20  1  1
 19 21  1  0
  9 22  1  0
 22 23  1  1
 22 24  1  0
 24 25  1  1
 26 25  1  1
 26 27  1  0
 27 28  1  0
 28 29  1  1
 28 30  1  0
 30 31  1  0
 31 32  1  0
 32 33  1  6
 31 34  1  1
 34 35  1  0
 34 36  1  0
 24 37  1  0
 37 38  1  6
 37 39  1  0
 37 40  1  0
 40 41  1  0
 41 42  1  6
 41 43  1  0
 43 44  1  0
 44 45  1  0
 44 46  1  0
 46 47  1  1
 46 48  1  0
 48 49  1  1
 48 50  1  0
 50 51  1  6
 50 52  1  0
 50  3  1  0
 21 11  1  0
 32 26  1  0
M  END
$$$$
