
     RDKit          3D

 52 54  0  0  0  0  0  0  0  0999 V2000
  125.3796  144.8591  135.6405 C   0  0  0  0  0  0  0  0  0  0  0  0
  126.1889  143.6422  135.9391 C   0  0  0  0  0  0  0  0  0  0  0  0
  127.2295  143.3370  134.8853 C   0  0  1  0  0  0  0  0  0  0  0  0
  126.5404  143.1040  133.6937 O   0  0  0  0  0  0  0  0  0  0  0  0
  126.8683  142.2908  132.6565 C   0  0  0  0  0  0  0  0  0  0  0  0
  126.6842  142.7335  131.4937 O   0  0  0  0  0  0  0  0  0  0  0  0
  127.4335  140.9057  132.7806 C   0  0  2  0  0  0  0  0  0  0  0  0
  127.9099  140.4944  131.4036 C   0  0  0  0  0  0  0  0  0  0  0  0
  126.4252  139.9275  133.2245 C   0  0  1  0  0  0  0  0  0  0  0  0
  125.5673  139.6655  132.1642 O   0  0  0  0  0  0  0  0  0  0  0  0
  124.2311  139.6711  132.4666 C   0  0  1  0  0  0  0  0  0  0  0  0
  123.2944  139.4985  131.3227 C   0  0  0  0  0  0  0  0  0  0  0  0
  121.9274  139.0543  131.8585 C   0  0  1  0  0  0  0  0  0  0  0  0
  121.5545  140.0615  132.9138 C   0  0  0  0  0  0  0  0  0  0  0  0
  121.0626  139.1459  130.7904 O   0  0  0  0  0  0  0  0  0  0  0  0
  121.4125  138.4007  129.6828 C   0  0  0  0  0  0  0  0  0  0  0  0
  122.0898  137.6716  132.4056 C   0  0  1  0  0  0  0  0  0  0  0  0
  121.7093  136.7377  131.4167 O   0  0  0  0  0  0  0  0  0  0  0  0
  123.5699  137.4769  132.7401 C   0  0  2  0  0  0  0  0  0  0  0  0
  123.6818  136.3205  133.7162 C   0  0  0  0  0  0  0  0  0  0  0  0
  124.0283  138.6126  133.3650 O   0  0  0  0  0  0  0  0  0  0  0  0
  126.8110  138.7539  134.0243 C   0  0  2  0  0  0  0  0  0  0  0  0
  126.7591  139.1413  135.4902 C   0  0  0  0  0  0  0  0  0  0  0  0
  127.9324  137.8680  133.6633 C   0  0  1  0  0  0  0  0  0  0  0  0
  128.1322  137.6539  132.3255 O   0  0  0  0  0  0  0  0  0  0  0  0
  129.3775  137.2621  131.8993 C   0  0  2  0  0  0  0  0  0  0  0  0
  130.2188  138.2705  131.4657 O   0  0  0  0  0  0  0  0  0  0  0  0
  131.0579  137.9073  130.4420 C   0  0  2  0  0  0  0  0  0  0  0  0
  131.9199  139.0504  129.9574 C   0  0  0  0  0  0  0  0  0  0  0  0
  130.2906  137.4039  129.2388 C   0  0  0  0  0  0  0  0  0  0  0  0
  129.6977  136.1031  129.6408 C   0  0  1  0  0  0  0  0  0  0  0  0
  129.3717  136.0379  131.0720 C   0  0  1  0  0  0  0  0  0  0  0  0
  130.1776  135.0047  131.6380 O   0  0  0  0  0  0  0  0  0  0  0  0
  128.5798  135.7171  128.7799 N   0  0  0  0  0  0  0  0  0  0  0  0
  129.1539  134.7851  127.7930 C   0  0  0  0  0  0  0  0  0  0  0  0
  128.1577  136.9029  128.0554 C   0  0  0  0  0  0  0  0  0  0  0  0
  129.1829  137.9273  134.4706 C   0  0  2  0  0  0  0  0  0  0  0  0
  129.7821  136.5091  134.3701 C   0  0  0  0  0  0  0  0  0  0  0  0
  128.8858  138.0457  135.8483 O   0  0  0  0  0  0  0  0  0  0  0  0
  130.2711  138.8574  134.1781 C   0  0  0  0  0  0  0  0  0  0  0  0
  130.6681  139.7460  135.3678 C   0  0  1  0  0  0  0  0  0  0  0  0
  131.8222  139.1817  136.1382 C   0  0  0  0  0  0  0  0  0  0  0  0
  131.0369  141.1303  134.8892 C   0  0  0  0  0  0  0  0  0  0  0  0
  130.3304  142.1633  135.6634 N   0  0  0  0  0  0  0  0  0  0  0  0
  130.8104  142.2562  137.0068 C   0  0  0  0  0  0  0  0  0  0  0  0
  130.4918  143.4578  135.0412 C   0  0  2  0  0  0  0  0  0  0  0  0
  131.8307  144.0697  135.4715 C   0  0  0  0  0  0  0  0  0  0  0  0
  129.4116  144.3538  135.5737 C   0  0  1  0  0  0  0  0  0  0  0  0
  129.9290  145.6485  135.7099 O   0  0  0  0  0  0  0  0  0  0  0  0
  128.2054  144.4679  134.6667 C   0  0  1  0  0  0  0  0  0  0  0  0
  128.5999  144.5833  133.2054 C   0  0  0  0  0  0  0  0  0  0  0  0
  127.5506  145.6582  134.9777 O   0  0  0  0  0  0  0  0  0  0  0  0
  1  2  1  0
  3  2  1  1
  3  4  1  0
  4  5  1  0
  5  6  2  0
  5  7  1  0
  7  8  1  6
  7  9  1  0
  9 10  1  6
 11 10  1  6
 11 12  1  0
 12 13  1  0
 13 14  1  1
 13 15  1  0
 15 16  1  0
 13 17  1  0
 17 18  1  6
 17 19  1  0
 19 20  1  1
 19 21  1  0
  9 22  1  0
 22 23  1  1
 22 24  1  0
 24 25  1  6
 26 25  1  6
 26 27  1  0
 27 28  1  0
 28 29  1  6
 28 30  1  0
 30 31  1  0
 31 32  1  0
 32 33  1  1
 31 34  1  6
 34 35  1  0
 34 36  1  0
 24 37  1  0
 37 38  1  1
 37 39  1  0
 37 40  1  0
 40 41  1  0
 41 42  1  6
 41 43  1  0
 43 44  1  0
 44 45  1  0
 44 46  1  0
 46 47  1  1
 46 48  1  0
 48 49  1  6
 48 50  1  0
 50 51  1  6
 50 52  1  0
 50  3  1  0
 21 11  1  0
 32 26  1  0
M  END
$$$$
