
     RDKit          3D

 52 54  0  0  0  0  0  0  0  0999 V2000
  168.0198  148.8398  131.9274 C   0  0  0  0  0  0  0  0  0  0  0  0
  168.4244  147.4862  131.4486 C   0  0  0  0  0  0  0  0  0  0  0  0
  169.6936  147.4924  130.6266 C   0  0  1  0  0  0  0  0  0  0  0  0
  169.6845  148.6718  129.8797 O   0  0  0  0  0  0  0  0  0  0  0  0
  170.2146  148.9163  128.6534 C   0  0  0  0  0  0  0  0  0  0  0  0
  170.8108  150.0115  128.4887 O   0  0  0  0  0  0  0  0  0  0  0  0
  170.1495  147.9880  127.4755 C   0  0  2  0  0  0  0  0  0  0  0  0
  171.1028  148.5276  126.4304 C   0  0  0  0  0  0  0  0  0  0  0  0
  168.8034  147.9339  126.8792 C   0  0  1  0  0  0  0  0  0  0  0  0
  168.5834  149.1124  126.1779 O   0  0  0  0  0  0  0  0  0  0  0  0
  167.8819  150.0796  126.8480 C   0  0  1  0  0  0  0  0  0  0  0  0
  167.5536  151.3104  126.0779 C   0  0  0  0  0  0  0  0  0  0  0  0
  166.4018  152.0448  126.7761 C   0  0  1  0  0  0  0  0  0  0  0  0
  166.8350  152.2179  128.2077 C   0  0  0  0  0  0  0  0  0  0  0  0
  166.3145  153.2718  126.1566 O   0  0  0  0  0  0  0  0  0  0  0  0
  166.7964  153.3155  124.8641 C   0  0  0  0  0  0  0  0  0  0  0  0
  165.1797  151.1936  126.6370 C   0  0  1  0  0  0  0  0  0  0  0  0
  164.4346  151.6367  125.5220 O   0  0  0  0  0  0  0  0  0  0  0  0
  165.6422  149.7555  126.3951 C   0  0  2  0  0  0  0  0  0  0  0  0
  164.4889  148.8290  126.7328 C   0  0  0  0  0  0  0  0  0  0  0  0
  166.6797  149.4812  127.2545 O   0  0  0  0  0  0  0  0  0  0  0  0
  168.3167  146.7114  126.2202 C   0  0  2  0  0  0  0  0  0  0  0  0
  167.6468  145.8425  127.2680 C   0  0  0  0  0  0  0  0  0  0  0  0
  169.1048  145.9686  125.2202 C   0  0  1  0  0  0  0  0  0  0  0  0
  169.8825  146.7191  124.3790 O   0  0  0  0  0  0  0  0  0  0  0  0
  169.5444  146.7825  123.0495 C   0  0  2  0  0  0  0  0  0  0  0  0
  169.6802  145.6096  122.3293 O   0  0  0  0  0  0  0  0  0  0  0  0
  170.0556  145.7884  121.0211 C   0  0  2  0  0  0  0  0  0  0  0  0
  170.2497  144.4832  120.2838 C   0  0  0  0  0  0  0  0  0  0  0  0
  171.3607  146.5462  120.9100 C   0  0  0  0  0  0  0  0  0  0  0  0
  171.0717  147.9346  121.3505 C   0  0  1  0  0  0  0  0  0  0  0  0
  170.0139  148.0063  122.3678 C   0  0  1  0  0  0  0  0  0  0  0  0
  168.9365  148.7501  121.7993 O   0  0  0  0  0  0  0  0  0  0  0  0
  172.2855  148.6555  121.7335 N   0  0  0  0  0  0  0  0  0  0  0  0
  171.8151  149.8494  122.4584 C   0  0  0  0  0  0  0  0  0  0  0  0
  172.9216  149.1178  120.5125 C   0  0  0  0  0  0  0  0  0  0  0  0
  169.7007  144.6585  125.6043 C   0  0  2  0  0  0  0  0  0  0  0  0
  169.7675  143.8570  124.2878 C   0  0  0  0  0  0  0  0  0  0  0  0
  168.7942  143.9046  126.3854 O   0  0  0  0  0  0  0  0  0  0  0  0
  171.0167  144.5395  126.2279 C   0  0  0  0  0  0  0  0  0  0  0  0
  171.0078  143.7740  127.5609 C   0  0  1  0  0  0  0  0  0  0  0  0
  171.3437  142.3248  127.3860 C   0  0  0  0  0  0  0  0  0  0  0  0
  171.9963  144.3866  128.5248 C   0  0  0  0  0  0  0  0  0  0  0  0
  171.3724  144.6374  129.8338 N   0  0  0  0  0  0  0  0  0  0  0  0
  171.0919  143.4268  130.5408 C   0  0  0  0  0  0  0  0  0  0  0  0
  172.2411  145.4453  130.6594 C   0  0  2  0  0  0  0  0  0  0  0  0
  173.2806  144.5473  131.3415 C   0  0  0  0  0  0  0  0  0  0  0  0
  171.4007  146.0450  131.7490 C   0  0  1  0  0  0  0  0  0  0  0  0
  172.1615  146.0993  132.9241 O   0  0  0  0  0  0  0  0  0  0  0  0
  170.9475  147.4611  131.4665 C   0  0  1  0  0  0  0  0  0  0  0  0
  172.0503  148.2993  130.8453 C   0  0  0  0  0  0  0  0  0  0  0  0
  170.6543  148.0654  132.6876 O   0  0  0  0  0  0  0  0  0  0  0  0
  1  2  1  0
  3  2  1  1
  3  4  1  0
  4  5  1  0
  5  6  2  0
  5  7  1  0
  7  8  1  6
  7  9  1  0
  9 10  1  6
 11 10  1  6
 11 12  1  0
 12 13  1  0
 13 14  1  1
 13 15  1  0
 15 16  1  0
 13 17  1  0
 17 18  1  6
 17 19  1  0
 19 20  1  1
 19 21  1  0
  9 22  1  0
 22 23  1  1
 22 24  1  0
 24 25  1  1
 26 25  1  1
 26 27  1  0
 27 28  1  0
 28 29  1  1
 28 30  1  0
 30 31  1  0
 31 32  1  0
 32 33  1  6
 31 34  1  1
 34 35  1  0
 34 36  1  0
 24 37  1  0
 37 38  1  6
 37 39  1  0
 37 40  1  0
 40 41  1  0
 41 42  1  6
 41 43  1  0
 43 44  1  0
 44 45  1  0
 44 46  1  0
 46 47  1  1
 46 48  1  0
 48 49  1  1
 48 50  1  0
 50 51  1  6
 50 52  1  0
 50  3  1  0
 21 11  1  0
 32 26  1  0
M  END
$$$$
