
     RDKit          3D

 52 54  0  0  0  0  0  0  0  0999 V2000
  175.7515  148.8860  120.0392 C   0  0  0  0  0  0  0  0  0  0  0  0
  177.0543  148.2150  119.7608 C   0  0  0  0  0  0  0  0  0  0  0  0
  177.2104  146.8861  120.4653 C   0  0  1  0  0  0  0  0  0  0  0  0
  176.0196  146.1840  120.2702 O   0  0  0  0  0  0  0  0  0  0  0  0
  175.4152  145.2759  121.0794 C   0  0  0  0  0  0  0  0  0  0  0  0
  174.9234  144.2538  120.5359 O   0  0  0  0  0  0  0  0  0  0  0  0
  175.2844  145.3889  122.5704 C   0  0  2  0  0  0  0  0  0  0  0  0
  174.8117  144.0435  123.0790 C   0  0  0  0  0  0  0  0  0  0  0  0
  174.2914  146.4012  122.9701 C   0  0  1  0  0  0  0  0  0  0  0  0
  173.0214  145.8940  122.7271 O   0  0  0  0  0  0  0  0  0  0  0  0
  172.2656  146.5940  121.8241 C   0  0  1  0  0  0  0  0  0  0  0  0
  171.2972  145.8012  121.0183 C   0  0  0  0  0  0  0  0  0  0  0  0
  170.2369  146.7465  120.4390 C   0  0  1  0  0  0  0  0  0  0  0  0
  171.0009  147.8339  119.7312 C   0  0  0  0  0  0  0  0  0  0  0  0
  169.5287  145.9955  119.5271 O   0  0  0  0  0  0  0  0  0  0  0  0
  168.2999  145.5431  119.9633 C   0  0  0  0  0  0  0  0  0  0  0  0
  169.4218  147.2588  121.5838 C   0  0  1  0  0  0  0  0  0  0  0  0
  168.2609  146.4650  121.7140 O   0  0  0  0  0  0  0  0  0  0  0  0
  170.2684  147.1257  122.8512 C   0  0  2  0  0  0  0  0  0  0  0  0
  169.6889  148.0544  123.9018 C   0  0  0  0  0  0  0  0  0  0  0  0
  171.5471  147.5432  122.5667 O   0  0  0  0  0  0  0  0  0  0  0  0
  174.4381  147.1487  124.2293 C   0  0  2  0  0  0  0  0  0  0  0  0
  175.2647  148.3899  123.9501 C   0  0  0  0  0  0  0  0  0  0  0  0
  174.7237  146.4995  125.5214 C   0  0  1  0  0  0  0  0  0  0  0  0
  174.1475  145.2742  125.7270 O   0  0  0  0  0  0  0  0  0  0  0  0
  173.1291  145.1698  126.6425 C   0  0  2  0  0  0  0  0  0  0  0  0
  173.4078  145.6238  127.9188 O   0  0  0  0  0  0  0  0  0  0  0  0
  172.7847  144.9199  128.9190 C   0  0  2  0  0  0  0  0  0  0  0  0
  173.1588  145.4084  130.2997 C   0  0  0  0  0  0  0  0  0  0  0  0
  173.1340  143.4483  128.8715 C   0  0  0  0  0  0  0  0  0  0  0  0
  172.4843  142.9081  127.6503 C   0  0  1  0  0  0  0  0  0  0  0  0
  172.3826  143.8969  126.5682 C   0  0  1  0  0  0  0  0  0  0  0  0
  170.9924  144.1045  126.3204 O   0  0  0  0  0  0  0  0  0  0  0  0
  173.0842  141.6456  127.2190 N   0  0  0  0  0  0  0  0  0  0  0  0
  173.5461  141.8867  125.8403 C   0  0  0  0  0  0  0  0  0  0  0  0
  172.0208  140.6590  127.1490 C   0  0  0  0  0  0  0  0  0  0  0  0
  176.0817  146.6484  126.1153 C   0  0  2  0  0  0  0  0  0  0  0  0
  175.8559  146.5549  127.6387 C   0  0  0  0  0  0  0  0  0  0  0  0
  176.5600  147.9689  125.9492 O   0  0  0  0  0  0  0  0  0  0  0  0
  177.1855  145.7429  125.8048 C   0  0  0  0  0  0  0  0  0  0  0  0
  178.4464  146.4524  125.2856 C   0  0  1  0  0  0  0  0  0  0  0  0
  179.4351  146.7250  126.3774 C   0  0  0  0  0  0  0  0  0  0  0  0
  179.1187  145.6169  124.2220 C   0  0  0  0  0  0  0  0  0  0  0  0
  179.4094  146.4202  123.0237 N   0  0  0  0  0  0  0  0  0  0  0  0
  180.4505  147.3734  123.2502 C   0  0  0  0  0  0  0  0  0  0  0  0
  179.8161  145.5660  121.9310 C   0  0  2  0  0  0  0  0  0  0  0  0
  181.3100  145.2439  122.0613 C   0  0  0  0  0  0  0  0  0  0  0  0
  179.6475  146.3462  120.6598 C   0  0  1  0  0  0  0  0  0  0  0  0
  180.6833  146.0022  119.7814 O   0  0  0  0  0  0  0  0  0  0  0  0
  178.3535  146.0585  119.9295 C   0  0  1  0  0  0  0  0  0  0  0  0
  178.0141  144.5789  119.9326 C   0  0  0  0  0  0  0  0  0  0  0  0
  178.5348  146.4030  118.5913 O   0  0  0  0  0  0  0  0  0  0  0  0
  1  2  1  0
  3  2  1  6
  3  4  1  0
  4  5  1  0
  5  6  2  0
  5  7  1  0
  7  8  1  6
  7  9  1  0
  9 10  1  1
 11 10  1  1
 11 12  1  0
 12 13  1  0
 13 14  1  6
 13 15  1  0
 15 16  1  0
 13 17  1  0
 17 18  1  1
 17 19  1  0
 19 20  1  1
 19 21  1  0
  9 22  1  0
 22 23  1  6
 22 24  1  0
 24 25  1  6
 26 25  1  6
 26 27  1  0
 27 28  1  0
 28 29  1  1
 28 30  1  0
 30 31  1  0
 31 32  1  0
 32 33  1  1
 31 34  1  6
 34 35  1  0
 34 36  1  0
 24 37  1  0
 37 38  1  1
 37 39  1  0
 37 40  1  0
 40 41  1  0
 41 42  1  1
 41 43  1  0
 43 44  1  0
 44 45  1  0
 44 46  1  0
 46 47  1  1
 46 48  1  0
 48 49  1  6
 48 50  1  0
 50 51  1  6
 50 52  1  0
 50  3  1  0
 21 11  1  0
 32 26  1  0
M  END
$$$$
