
     RDKit          3D

 52 54  0  0  0  0  0  0  0  0999 V2000
  128.9655  144.1668  130.0330 C   0  0  0  0  0  0  0  0  0  0  0  0
  128.0884  143.8932  131.2081 C   0  0  0  0  0  0  0  0  0  0  0  0
  128.8261  143.2934  132.3839 C   0  0  1  0  0  0  0  0  0  0  0  0
  130.0411  142.8108  131.8940 O   0  0  0  0  0  0  0  0  0  0  0  0
  130.7819  141.7559  132.3219 C   0  0  0  0  0  0  0  0  0  0  0  0
  132.0285  141.9115  132.3835 O   0  0  0  0  0  0  0  0  0  0  0  0
  130.2378  140.4174  132.7288 C   0  0  2  0  0  0  0  0  0  0  0  0
  131.3669  139.6627  133.3978 C   0  0  0  0  0  0  0  0  0  0  0  0
  129.7813  139.6243  131.5742 C   0  0  1  0  0  0  0  0  0  0  0  0
  130.8965  139.1534  130.8933 O   0  0  0  0  0  0  0  0  0  0  0  0
  130.9398  139.4413  129.5546 C   0  0  1  0  0  0  0  0  0  0  0  0
  132.2924  139.6356  128.9643 C   0  0  0  0  0  0  0  0  0  0  0  0
  132.2021  139.4695  127.4420 C   0  0  1  0  0  0  0  0  0  0  0  0
  131.1092  140.4028  126.9926 C   0  0  0  0  0  0  0  0  0  0  0  0
  133.4171  139.8921  126.9499 O   0  0  0  0  0  0  0  0  0  0  0  0
  133.7764  141.1798  127.2927 C   0  0  0  0  0  0  0  0  0  0  0  0
  131.8897  138.0328  127.1671 C   0  0  1  0  0  0  0  0  0  0  0  0
  133.0934  137.3419  126.9049 O   0  0  0  0  0  0  0  0  0  0  0  0
  131.2383  137.4519  128.4236 C   0  0  2  0  0  0  0  0  0  0  0  0
  130.4895  136.1939  128.0247 C   0  0  0  0  0  0  0  0  0  0  0  0
  130.3255  138.3621  128.9016 O   0  0  0  0  0  0  0  0  0  0  0  0
  128.6749  138.6630  131.7070 C   0  0  2  0  0  0  0  0  0  0  0  0
  127.3746  139.3963  131.4367 C   0  0  0  0  0  0  0  0  0  0  0  0
  128.6025  137.6646  132.7889 C   0  0  1  0  0  0  0  0  0  0  0  0
  129.7923  137.1233  133.1978 O   0  0  0  0  0  0  0  0  0  0  0  0
  130.6273  136.5775  132.2539 C   0  0  2  0  0  0  0  0  0  0  0  0
  130.2187  135.3787  131.6985 O   0  0  0  0  0  0  0  0  0  0  0  0
  131.2438  134.5234  131.3798 C   0  0  2  0  0  0  0  0  0  0  0  0
  130.7555  133.2029  130.8298 C   0  0  0  0  0  0  0  0  0  0  0  0
  132.1003  134.2000  132.5846 C   0  0  0  0  0  0  0  0  0  0  0  0
  132.8242  135.4510  132.9254 C   0  0  1  0  0  0  0  0  0  0  0  0
  132.0614  136.6636  132.5987 C   0  0  1  0  0  0  0  0  0  0  0  0
  132.8083  137.3745  131.6118 O   0  0  0  0  0  0  0  0  0  0  0  0
  133.3249  135.4414  134.2999 N   0  0  0  0  0  0  0  0  0  0  0  0
  132.1478  135.7150  135.1434 C   0  0  0  0  0  0  0  0  0  0  0  0
  134.2272  136.5703  134.4431 C   0  0  0  0  0  0  0  0  0  0  0  0
  127.6076  137.8593  133.8804 C   0  0  2  0  0  0  0  0  0  0  0  0
  127.2637  136.4327  134.3567 C   0  0  0  0  0  0  0  0  0  0  0  0
  126.3764  138.3220  133.3604 O   0  0  0  0  0  0  0  0  0  0  0  0
  127.8933  138.6388  135.0827 C   0  0  0  0  0  0  0  0  0  0  0  0
  126.8863  139.7699  135.3460 C   0  0  1  0  0  0  0  0  0  0  0  0
  125.8017  139.3559  136.2926 C   0  0  0  0  0  0  0  0  0  0  0  0
  127.5909  140.9780  135.9165 C   0  0  0  0  0  0  0  0  0  0  0  0
  127.2237  142.1998  135.1829 N   0  0  0  0  0  0  0  0  0  0  0  0
  125.8714  142.5932  135.4287 C   0  0  0  0  0  0  0  0  0  0  0  0
  128.0842  143.2957  135.5668 C   0  0  2  0  0  0  0  0  0  0  0  0
  127.5591  143.9305  136.8605 C   0  0  0  0  0  0  0  0  0  0  0  0
  127.9873  144.3436  134.4963 C   0  0  1  0  0  0  0  0  0  0  0  0
  128.0562  145.6070  135.0977 O   0  0  0  0  0  0  0  0  0  0  0  0
  129.1087  144.2906  133.4815 C   0  0  1  0  0  0  0  0  0  0  0  0
  130.4549  144.0296  134.1327 C   0  0  0  0  0  0  0  0  0  0  0  0
  129.2099  145.5500  132.8934 O   0  0  0  0  0  0  0  0  0  0  0  0
  1  2  1  0
  3  2  1  6
  3  4  1  0
  4  5  1  0
  5  6  2  0
  5  7  1  0
  7  8  1  6
  7  9  1  0
  9 10  1  1
 11 10  1  1
 11 12  1  0
 12 13  1  0
 13 14  1  6
 13 15  1  0
 15 16  1  0
 13 17  1  0
 17 18  1  1
 17 19  1  0
 19 20  1  6
 19 21  1  0
  9 22  1  0
 22 23  1  1
 22 24  1  0
 24 25  1  1
 26 25  1  1
 26 27  1  0
 27 28  1  0
 28 29  1  1
 28 30  1  0
 30 31  1  0
 31 32  1  0
 32 33  1  6
 31 34  1  1
 34 35  1  0
 34 36  1  0
 24 37  1  0
 37 38  1  1
 37 39  1  0
 37 40  1  0
 40 41  1  0
 41 42  1  1
 41 43  1  0
 43 44  1  0
 44 45  1  0
 44 46  1  0
 46 47  1  1
 46 48  1  0
 48 49  1  1
 48 50  1  0
 50 51  1  1
 50 52  1  0
 50  3  1  0
 21 11  1  0
 32 26  1  0
M  END
$$$$
