
     RDKit          3D

 52 54  0  0  0  0  0  0  0  0999 V2000
  201.9298  137.8332  132.4154 C   0  0  0  0  0  0  0  0  0  0  0  0
  201.4739  136.4659  132.7999 C   0  0  0  0  0  0  0  0  0  0  0  0
  202.5821  135.4370  132.7929 C   0  0  1  0  0  0  0  0  0  0  0  0
  202.7391  135.0226  131.4691 O   0  0  0  0  0  0  0  0  0  0  0  0
  203.1335  133.8152  130.9879 C   0  0  0  0  0  0  0  0  0  0  0  0
  203.9359  133.8126  130.0193 O   0  0  0  0  0  0  0  0  0  0  0  0
  202.6920  132.4810  131.5153 C   0  0  2  0  0  0  0  0  0  0  0  0
  203.5871  131.4351  130.8852 C   0  0  0  0  0  0  0  0  0  0  0  0
  201.2994  132.1679  131.1507 C   0  0  1  0  0  0  0  0  0  0  0  0
  201.2596  131.8380  129.8021 O   0  0  0  0  0  0  0  0  0  0  0  0
  200.7538  132.8017  128.9701 C   0  0  1  0  0  0  0  0  0  0  0  0
  201.5924  134.0168  128.7803 C   0  0  0  0  0  0  0  0  0  0  0  0
  201.1428  134.7403  127.5046 C   0  0  1  0  0  0  0  0  0  0  0  0
  199.6573  134.9391  127.6488 C   0  0  0  0  0  0  0  0  0  0  0  0
  201.7869  135.9577  127.5219 O   0  0  0  0  0  0  0  0  0  0  0  0
  200.9598  137.0625  127.5186 C   0  0  0  0  0  0  0  0  0  0  0  0
  201.5029  133.8668  126.3450 C   0  0  1  0  0  0  0  0  0  0  0  0
  202.7482  134.2829  125.8245 O   0  0  0  0  0  0  0  0  0  0  0  0
  201.6276  132.4338  126.8659 C   0  0  2  0  0  0  0  0  0  0  0  0
  201.5054  131.4923  125.6822 C   0  0  0  0  0  0  0  0  0  0  0  0
  200.5789  132.1881  127.7204 O   0  0  0  0  0  0  0  0  0  0  0  0
  200.4574  131.3360  132.0252 C   0  0  2  0  0  0  0  0  0  0  0  0
  199.7599  132.2470  133.0179 C   0  0  0  0  0  0  0  0  0  0  0  0
  200.9052  130.0479  132.5846 C   0  0  1  0  0  0  0  0  0  0  0  0
  201.7083  129.2824  131.7817 O   0  0  0  0  0  0  0  0  0  0  0  0
  201.1233  128.3474  130.9634 C   0  0  2  0  0  0  0  0  0  0  0  0
  200.2123  127.4971  131.5631 O   0  0  0  0  0  0  0  0  0  0  0  0
  200.1948  126.2272  131.0423 C   0  0  2  0  0  0  0  0  0  0  0  0
  199.2294  125.3127  131.7607 C   0  0  0  0  0  0  0  0  0  0  0  0
  201.5550  125.5689  131.1221 C   0  0  0  0  0  0  0  0  0  0  0  0
  202.4231  126.2950  130.1607 C   0  0  1  0  0  0  0  0  0  0  0  0
  202.0590  127.7108  130.0135 C   0  0  1  0  0  0  0  0  0  0  0  0
  201.6576  127.9008  128.6571 O   0  0  0  0  0  0  0  0  0  0  0  0
  203.8447  126.0947  130.4414 N   0  0  0  0  0  0  0  0  0  0  0  0
  203.9054  125.6658  131.8501 C   0  0  0  0  0  0  0  0  0  0  0  0
  204.4923  127.3920  130.3595 C   0  0  0  0  0  0  0  0  0  0  0  0
  201.2324  129.9702  134.0358 C   0  0  2  0  0  0  0  0  0  0  0  0
  200.9276  128.5097  134.4288 C   0  0  0  0  0  0  0  0  0  0  0  0
  200.2960  130.7032  134.8013 O   0  0  0  0  0  0  0  0  0  0  0  0
  202.5601  130.2722  134.5657 C   0  0  0  0  0  0  0  0  0  0  0  0
  202.5631  131.3487  135.6629 C   0  0  1  0  0  0  0  0  0  0  0  0
  202.5293  130.7575  137.0388 C   0  0  0  0  0  0  0  0  0  0  0  0
  203.7912  132.2195  135.5409 C   0  0  0  0  0  0  0  0  0  0  0  0
  203.4320  133.6465  135.5623 N   0  0  0  0  0  0  0  0  0  0  0  0
  202.9832  134.0726  136.8511 C   0  0  0  0  0  0  0  0  0  0  0  0
  204.5701  134.4581  135.1951 C   0  0  2  0  0  0  0  0  0  0  0  0
  205.4609  134.6774  136.4242 C   0  0  0  0  0  0  0  0  0  0  0  0
  204.0516  135.8061  134.7862 C   0  0  1  0  0  0  0  0  0  0  0  0
  204.9620  136.7839  135.2079 O   0  0  0  0  0  0  0  0  0  0  0  0
  203.9006  135.9784  133.2902 C   0  0  1  0  0  0  0  0  0  0  0  0
  205.0678  135.3790  132.5268 C   0  0  0  0  0  0  0  0  0  0  0  0
  203.9285  137.3442  133.0145 O   0  0  0  0  0  0  0  0  0  0  0  0
  1  2  1  0
  3  2  1  6
  3  4  1  0
  4  5  1  0
  5  6  2  0
  5  7  1  0
  7  8  1  6
  7  9  1  0
  9 10  1  6
 11 10  1  1
 11 12  1  0
 12 13  1  0
 13 14  1  1
 13 15  1  0
 15 16  1  0
 13 17  1  0
 17 18  1  1
 17 19  1  0
 19 20  1  6
 19 21  1  0
  9 22  1  0
 22 23  1  1
 22 24  1  0
 24 25  1  6
 26 25  1  1
 26 27  1  0
 27 28  1  0
 28 29  1  1
 28 30  1  0
 30 31  1  0
 31 32  1  0
 32 33  1  6
 31 34  1  1
 34 35  1  0
 34 36  1  0
 24 37  1  0
 37 38  1  1
 37 39  1  0
 37 40  1  0
 40 41  1  0
 41 42  1  1
 41 43  1  0
 43 44  1  0
 44 45  1  0
 44 46  1  0
 46 47  1  1
 46 48  1  0
 48 49  1  6
 48 50  1  0
 50 51  1  6
 50 52  1  0
 50  3  1  0
 21 11  1  0
 32 26  1  0
M  END
$$$$
