
     RDKit          3D

 52 54  0  0  0  0  0  0  0  0999 V2000
  184.2996  157.0309  139.3825 C   0  0  0  0  0  0  0  0  0  0  0  0
  184.7520  158.0833  140.3380 C   0  0  0  0  0  0  0  0  0  0  0  0
  184.5255  159.4913  139.8351 C   0  0  1  0  0  0  0  0  0  0  0  0
  183.3931  159.4509  139.0195 O   0  0  0  0  0  0  0  0  0  0  0  0
  183.0880  160.2094  137.9349 C   0  0  0  0  0  0  0  0  0  0  0  0
  181.9037  160.6200  137.8308 O   0  0  0  0  0  0  0  0  0  0  0  0
  184.0465  160.6002  136.8479 C   0  0  2  0  0  0  0  0  0  0  0  0
  183.3647  161.6650  136.0150 C   0  0  0  0  0  0  0  0  0  0  0  0
  184.3777  159.4713  135.9611 C   0  0  1  0  0  0  0  0  0  0  0  0
  183.2857  159.2190  135.1408 O   0  0  0  0  0  0  0  0  0  0  0  0
  182.9046  157.9065  135.0471 C   0  0  1  0  0  0  0  0  0  0  0  0
  182.7300  157.3661  133.6711 C   0  0  0  0  0  0  0  0  0  0  0  0
  182.7820  155.8339  133.7253 C   0  0  1  0  0  0  0  0  0  0  0  0
  181.7703  155.4266  134.7634 C   0  0  0  0  0  0  0  0  0  0  0  0
  182.3807  155.4048  132.4796 O   0  0  0  0  0  0  0  0  0  0  0  0
  183.3886  155.2842  131.5445 C   0  0  0  0  0  0  0  0  0  0  0  0
  184.1796  155.4470  134.0920 C   0  0  1  0  0  0  0  0  0  0  0  0
  184.9037  155.1654  132.9125 O   0  0  0  0  0  0  0  0  0  0  0  0
  184.8192  156.6410  134.8033 C   0  0  2  0  0  0  0  0  0  0  0  0
  186.0099  156.1326  135.5944 C   0  0  0  0  0  0  0  0  0  0  0  0
  183.9051  157.1611  135.6889 O   0  0  0  0  0  0  0  0  0  0  0  0
  185.6906  159.3877  135.3015 C   0  0  2  0  0  0  0  0  0  0  0  0
  186.6405  158.6518  136.2277 C   0  0  0  0  0  0  0  0  0  0  0  0
  186.2969  160.5152  134.5710 C   0  0  1  0  0  0  0  0  0  0  0  0
  185.4360  161.3251  133.8791 O   0  0  0  0  0  0  0  0  0  0  0  0
  185.3355  161.1706  132.5182 C   0  0  2  0  0  0  0  0  0  0  0  0
  186.2319  161.8957  131.7544 O   0  0  0  0  0  0  0  0  0  0  0  0
  185.7328  162.3240  130.5496 C   0  0  2  0  0  0  0  0  0  0  0  0
  186.7213  163.1607  129.7702 C   0  0  0  0  0  0  0  0  0  0  0  0
  184.4920  163.1721  130.7254 C   0  0  0  0  0  0  0  0  0  0  0  0
  183.4271  162.2535  131.2022 C   0  0  1  0  0  0  0  0  0  0  0  0
  183.9457  161.1465  132.0173 C   0  0  1  0  0  0  0  0  0  0  0  0
  183.6485  159.9378  131.3188 O   0  0  0  0  0  0  0  0  0  0  0  0
  182.3262  162.9717  131.8442 N   0  0  0  0  0  0  0  0  0  0  0  0
  182.2852  164.2889  131.1845 C   0  0  0  0  0  0  0  0  0  0  0  0
  182.7014  163.1968  133.2291 C   0  0  0  0  0  0  0  0  0  0  0  0
  187.4549  161.2266  135.1810 C   0  0  2  0  0  0  0  0  0  0  0  0
  188.2679  161.7540  133.9805 C   0  0  0  0  0  0  0  0  0  0  0  0
  188.3459  160.3091  135.7849 O   0  0  0  0  0  0  0  0  0  0  0  0
  187.2985  162.3514  136.1003 C   0  0  0  0  0  0  0  0  0  0  0  0
  188.0106  162.1579  137.4487 C   0  0  1  0  0  0  0  0  0  0  0  0
  189.3723  162.7820  137.4667 C   0  0  0  0  0  0  0  0  0  0  0  0
  187.1898  162.7560  138.5667 C   0  0  0  0  0  0  0  0  0  0  0  0
  187.0248  161.7988  139.6722 N   0  0  0  0  0  0  0  0  0  0  0  0
  188.2449  161.5784  140.3842 C   0  0  0  0  0  0  0  0  0  0  0  0
  186.0396  162.2810  140.6134 C   0  0  2  0  0  0  0  0  0  0  0  0
  186.6988  163.2686  141.5842 C   0  0  0  0  0  0  0  0  0  0  0  0
  185.5810  161.1076  141.4295 C   0  0  1  0  0  0  0  0  0  0  0  0
  185.3453  161.5383  142.7416 O   0  0  0  0  0  0  0  0  0  0  0  0
  184.2884  160.4887  140.9432 C   0  0  1  0  0  0  0  0  0  0  0  0
  183.2721  161.5393  140.5335 C   0  0  0  0  0  0  0  0  0  0  0  0
  183.7156  159.8041  142.0135 O   0  0  0  0  0  0  0  0  0  0  0  0
  1  2  1  0
  3  2  1  1
  3  4  1  0
  4  5  1  0
  5  6  2  0
  5  7  1  0
  7  8  1  6
  7  9  1  0
  9 10  1  6
 11 10  1  6
 11 12  1  0
 12 13  1  0
 13 14  1  1
 13 15  1  0
 15 16  1  0
 13 17  1  0
 17 18  1  6
 17 19  1  0
 19 20  1  1
 19 21  1  0
  9 22  1  0
 22 23  1  1
 22 24  1  0
 24 25  1  1
 26 25  1  1
 26 27  1  0
 27 28  1  0
 28 29  1  1
 28 30  1  0
 30 31  1  0
 31 32  1  0
 32 33  1  6
 31 34  1  1
 34 35  1  0
 34 36  1  0
 24 37  1  0
 37 38  1  6
 37 39  1  0
 37 40  1  0
 40 41  1  0
 41 42  1  6
 41 43  1  0
 43 44  1  0
 44 45  1  0
 44 46  1  0
 46 47  1  1
 46 48  1  0
 48 49  1  1
 48 50  1  0
 50 51  1  6
 50 52  1  0
 50  3  1  0
 21 11  1  0
 32 26  1  0
M  END
$$$$
