
     RDKit          3D

 52 54  0  0  0  0  0  0  0  0999 V2000
  191.3498  155.8927  125.6688 C   0  0  0  0  0  0  0  0  0  0  0  0
  191.4278  156.1006  124.1937 C   0  0  0  0  0  0  0  0  0  0  0  0
  191.3627  157.5552  123.7859 C   0  0  1  0  0  0  0  0  0  0  0  0
  192.0778  158.2751  124.7447 O   0  0  0  0  0  0  0  0  0  0  0  0
  191.8870  159.5463  125.1835 C   0  0  0  0  0  0  0  0  0  0  0  0
  192.9093  160.2583  125.3563 O   0  0  0  0  0  0  0  0  0  0  0  0
  190.5565  160.1747  125.4801 C   0  0  2  0  0  0  0  0  0  0  0  0
  190.7950  161.6595  125.6562 C   0  0  0  0  0  0  0  0  0  0  0  0
  189.9586  159.6590  126.7239 C   0  0  1  0  0  0  0  0  0  0  0  0
  190.6458  160.2015  127.8022 O   0  0  0  0  0  0  0  0  0  0  0  0
  191.6207  159.4068  128.3450 C   0  0  1  0  0  0  0  0  0  0  0  0
  192.4352  160.0117  129.4343 C   0  0  0  0  0  0  0  0  0  0  0  0
  193.1152  158.8912  130.2313 C   0  0  1  0  0  0  0  0  0  0  0  0
  193.8357  158.0454  129.2150 C   0  0  0  0  0  0  0  0  0  0  0  0
  194.0241  159.5196  131.0536 O   0  0  0  0  0  0  0  0  0  0  0  0
  193.5976  159.7345  132.3484 C   0  0  0  0  0  0  0  0  0  0  0  0
  192.0414  158.1424  130.9549 C   0  0  1  0  0  0  0  0  0  0  0  0
  191.9322  158.6491  132.2687 O   0  0  0  0  0  0  0  0  0  0  0  0
  190.7267  158.3837  130.2106 C   0  0  2  0  0  0  0  0  0  0  0  0
  189.7552  157.2878  130.6076 C   0  0  0  0  0  0  0  0  0  0  0  0
  190.9648  158.2787  128.8606 O   0  0  0  0  0  0  0  0  0  0  0  0
  188.4979  159.5817  126.8855 C   0  0  2  0  0  0  0  0  0  0  0  0
  188.0340  158.2345  126.3645 C   0  0  0  0  0  0  0  0  0  0  0  0
  187.5939  160.7037  126.5751 C   0  0  1  0  0  0  0  0  0  0  0  0
  188.0656  161.9594  126.8514 O   0  0  0  0  0  0  0  0  0  0  0  0
  188.9577  162.1161  127.8838 C   0  0  2  0  0  0  0  0  0  0  0  0
  188.5352  161.6794  129.1261 O   0  0  0  0  0  0  0  0  0  0  0  0
  189.0065  162.4239  130.1786 C   0  0  2  0  0  0  0  0  0  0  0  0
  188.4774  161.9517  131.5135 C   0  0  0  0  0  0  0  0  0  0  0  0
  188.6217  163.8818  130.0520 C   0  0  0  0  0  0  0  0  0  0  0  0
  189.4025  164.4180  128.9084 C   0  0  1  0  0  0  0  0  0  0  0  0
  189.6688  163.4112  127.8719 C   0  0  1  0  0  0  0  0  0  0  0  0
  191.0847  163.2447  127.8043 O   0  0  0  0  0  0  0  0  0  0  0  0
  188.8234  165.6509  128.3750 N   0  0  0  0  0  0  0  0  0  0  0  0
  187.4363  165.3047  128.0170 C   0  0  0  0  0  0  0  0  0  0  0  0
  189.5208  165.9612  127.1394 C   0  0  0  0  0  0  0  0  0  0  0  0
  186.7390  160.6215  125.3579 C   0  0  2  0  0  0  0  0  0  0  0  0
  185.4896  161.4601  125.6988 C   0  0  0  0  0  0  0  0  0  0  0  0
  186.2102  159.3190  125.2031 O   0  0  0  0  0  0  0  0  0  0  0  0
  187.1898  161.0680  124.0418 C   0  0  0  0  0  0  0  0  0  0  0  0
  187.0837  159.9925  122.9487 C   0  0  1  0  0  0  0  0  0  0  0  0
  185.8113  160.1018  122.1658 C   0  0  0  0  0  0  0  0  0  0  0  0
  188.2494  160.0972  121.9940 C   0  0  0  0  0  0  0  0  0  0  0  0
  188.8894  158.7870  121.7951 N   0  0  0  0  0  0  0  0  0  0  0  0
  188.0663  157.8905  121.0450 C   0  0  0  0  0  0  0  0  0  0  0  0
  190.1414  158.9399  121.0892 C   0  0  2  0  0  0  0  0  0  0  0  0
  189.8727  159.0228  119.5815 C   0  0  0  0  0  0  0  0  0  0  0  0
  190.9465  157.6944  121.3209 C   0  0  1  0  0  0  0  0  0  0  0  0
  191.6620  157.3990  120.1532 O   0  0  0  0  0  0  0  0  0  0  0  0
  191.9691  157.8212  122.4293 C   0  0  1  0  0  0  0  0  0  0  0  0
  192.6831  159.1604  122.3956 C   0  0  0  0  0  0  0  0  0  0  0  0
  192.9548  156.8605  122.2104 O   0  0  0  0  0  0  0  0  0  0  0  0
  1  2  1  0
  3  2  1  1
  3  4  1  0
  4  5  1  0
  5  6  2  0
  5  7  1  0
  7  8  1  1
  7  9  1  0
  9 10  1  1
 11 10  1  1
 11 12  1  0
 12 13  1  0
 13 14  1  6
 13 15  1  0
 15 16  1  0
 13 17  1  0
 17 18  1  1
 17 19  1  0
 19 20  1  1
 19 21  1  0
  9 22  1  0
 22 23  1  6
 22 24  1  0
 24 25  1  6
 26 25  1  6
 26 27  1  0
 27 28  1  0
 28 29  1  1
 28 30  1  0
 30 31  1  0
 31 32  1  0
 32 33  1  1
 31 34  1  6
 34 35  1  0
 34 36  1  0
 24 37  1  0
 37 38  1  1
 37 39  1  0
 37 40  1  0
 40 41  1  0
 41 42  1  6
 41 43  1  0
 43 44  1  0
 44 45  1  0
 44 46  1  0
 46 47  1  6
 46 48  1  0
 48 49  1  6
 48 50  1  0
 50 51  1  1
 50 52  1  0
 50  3  1  0
 21 11  1  0
 32 26  1  0
M  END
$$$$
