
     RDKit          3D

 52 54  0  0  0  0  0  0  0  0999 V2000
  185.7590  156.9859  128.3757 C   0  0  0  0  0  0  0  0  0  0  0  0
  186.5623  156.8881  129.6288 C   0  0  0  0  0  0  0  0  0  0  0  0
  187.9664  157.4316  129.4885 C   0  0  1  0  0  0  0  0  0  0  0  0
  187.8449  158.7895  129.1882 O   0  0  0  0  0  0  0  0  0  0  0  0
  188.6624  159.5821  128.4477 C   0  0  0  0  0  0  0  0  0  0  0  0
  188.8989  160.7376  128.8845 O   0  0  0  0  0  0  0  0  0  0  0  0
  189.3093  159.1948  127.1497 C   0  0  2  0  0  0  0  0  0  0  0  0
  190.3435  160.2545  126.8343 C   0  0  0  0  0  0  0  0  0  0  0  0
  188.3466  159.1522  126.0353 C   0  0  1  0  0  0  0  0  0  0  0  0
  188.0236  160.4557  125.6808 O   0  0  0  0  0  0  0  0  0  0  0  0
  187.3914  160.6032  124.4744 C   0  0  1  0  0  0  0  0  0  0  0  0
  186.6015  161.8515  124.2910 C   0  0  0  0  0  0  0  0  0  0  0  0
  186.3752  162.0842  122.7918 C   0  0  1  0  0  0  0  0  0  0  0  0
  185.7819  160.8048  122.2640 C   0  0  0  0  0  0  0  0  0  0  0  0
  185.4518  163.1030  122.7097 O   0  0  0  0  0  0  0  0  0  0  0  0
  185.9347  164.2980  122.2163 C   0  0  0  0  0  0  0  0  0  0  0  0
  187.7039  162.4035  122.1835 C   0  0  1  0  0  0  0  0  0  0  0  0
  187.8507  163.8063  122.1089 O   0  0  0  0  0  0  0  0  0  0  0  0
  188.7839  161.8318  123.1040 C   0  0  2  0  0  0  0  0  0  0  0  0
  190.0656  161.7064  122.3016 C   0  0  0  0  0  0  0  0  0  0  0  0
  188.3984  160.5722  123.4979 O   0  0  0  0  0  0  0  0  0  0  0  0
  188.5341  158.2237  124.9090 C   0  0  2  0  0  0  0  0  0  0  0  0
  187.8532  156.9133  125.2565 C   0  0  0  0  0  0  0  0  0  0  0  0
  189.8129  158.0788  124.1905 C   0  0  1  0  0  0  0  0  0  0  0  0
  190.5544  159.2193  124.0322 O   0  0  0  0  0  0  0  0  0  0  0  0
  189.9263  160.4352  124.1470 C   0  0  2  0  0  0  0  0  0  0  0  0
  189.4053  160.9649  122.9804 O   0  0  0  0  0  0  0  0  0  0  0  0
  189.4583  162.3345  122.9071 C   0  0  2  0  0  0  0  0  0  0  0  0
  188.9336  162.8716  121.5953 C   0  0  0  0  0  0  0  0  0  0  0  0
  190.8737  162.8501  123.0504 C   0  0  0  0  0  0  0  0  0  0  0  0
  191.2676  162.5917  124.4587 C   0  0  1  0  0  0  0  0  0  0  0  0
  190.6298  161.3945  125.0233 C   0  0  1  0  0  0  0  0  0  0  0  0
  189.8110  161.8290  126.1086 O   0  0  0  0  0  0  0  0  0  0  0  0
  192.7195  162.6060  124.6368 N   0  0  0  0  0  0  0  0  0  0  0  0
  193.0626  164.0125  124.9127 C   0  0  0  0  0  0  0  0  0  0  0  0
  193.3187  162.2605  123.3598 C   0  0  0  0  0  0  0  0  0  0  0  0
  190.6198  156.8446  124.4025 C   0  0  2  0  0  0  0  0  0  0  0  0
  191.3913  156.6487  123.0808 C   0  0  0  0  0  0  0  0  0  0  0  0
  189.7868  155.7028  124.4520 O   0  0  0  0  0  0  0  0  0  0  0  0
  191.6013  156.7149  125.4770 C   0  0  0  0  0  0  0  0  0  0  0  0
  191.3715  155.4978  126.3874 C   0  0  1  0  0  0  0  0  0  0  0  0
  192.1878  154.3135  125.9692 C   0  0  0  0  0  0  0  0  0  0  0  0
  191.7137  155.8401  127.8181 C   0  0  0  0  0  0  0  0  0  0  0  0
  190.6279  155.4468  128.7303 N   0  0  0  0  0  0  0  0  0  0  0  0
  190.5176  154.0274  128.8605 C   0  0  0  0  0  0  0  0  0  0  0  0
  190.8507  155.9999  130.0468 C   0  0  2  0  0  0  0  0  0  0  0  0
  191.8146  155.0962  130.8257 C   0  0  0  0  0  0  0  0  0  0  0  0
  189.5398  155.9714  130.7775 C   0  0  1  0  0  0  0  0  0  0  0  0
  189.7845  155.6876  132.1274 O   0  0  0  0  0  0  0  0  0  0  0  0
  188.7899  157.2856  130.7452 C   0  0  1  0  0  0  0  0  0  0  0  0
  189.7137  158.4740  130.9421 C   0  0  0  0  0  0  0  0  0  0  0  0
  187.9144  157.3024  131.8294 O   0  0  0  0  0  0  0  0  0  0  0  0
  1  2  1  0
  3  2  1  1
  3  4  1  0
  4  5  1  0
  5  6  2  0
  5  7  1  0
  7  8  1  6
  7  9  1  0
  9 10  1  6
 11 10  1  1
 11 12  1  0
 12 13  1  0
 13 14  1  6
 13 15  1  0
 15 16  1  0
 13 17  1  0
 17 18  1  1
 17 19  1  0
 19 20  1  6
 19 21  1  0
  9 22  1  0
 22 23  1  1
 22 24  1  0
 24 25  1  1
 26 25  1  6
 26 27  1  0
 27 28  1  0
 28 29  1  6
 28 30  1  0
 30 31  1  0
 31 32  1  0
 32 33  1  1
 31 34  1  6
 34 35  1  0
 34 36  1  0
 24 37  1  0
 37 38  1  6
 37 39  1  0
 37 40  1  0
 40 41  1  0
 41 42  1  6
 41 43  1  0
 43 44  1  0
 44 45  1  0
 44 46  1  0
 46 47  1  1
 46 48  1  0
 48 49  1  1
 48 50  1  0
 50 51  1  1
 50 52  1  0
 50  3  1  0
 21 11  1  0
 32 26  1  0
M  END
$$$$
