
     RDKit          3D

 52 54  0  0  0  0  0  0  0  0999 V2000
  190.5988  152.9814  122.9784 C   0  0  0  0  0  0  0  0  0  0  0  0
  191.1576  153.6192  124.2056 C   0  0  0  0  0  0  0  0  0  0  0  0
  190.0980  154.0801  125.1810 C   0  0  1  0  0  0  0  0  0  0  0  0
  189.3231  155.0313  124.5147 O   0  0  0  0  0  0  0  0  0  0  0  0
  188.6662  156.1088  125.0168 C   0  0  0  0  0  0  0  0  0  0  0  0
  187.5117  156.3403  124.5745 O   0  0  0  0  0  0  0  0  0  0  0  0
  189.2023  157.0487  126.0572 C   0  0  2  0  0  0  0  0  0  0  0  0
  188.0451  157.9094  126.5180 C   0  0  0  0  0  0  0  0  0  0  0  0
  190.2470  157.9391  125.5221 C   0  0  1  0  0  0  0  0  0  0  0  0
  189.6415  158.8998  124.7225 O   0  0  0  0  0  0  0  0  0  0  0  0
  190.3803  159.3337  123.6536 C   0  0  1  0  0  0  0  0  0  0  0  0
  189.9675  158.8269  122.3162 C   0  0  0  0  0  0  0  0  0  0  0  0
  190.5497  159.7435  121.2327 C   0  0  1  0  0  0  0  0  0  0  0  0
  192.0261  159.8266  121.5169 C   0  0  0  0  0  0  0  0  0  0  0  0
  190.3338  159.0908  120.0392 O   0  0  0  0  0  0  0  0  0  0  0  0
  190.1325  159.9101  118.9470 C   0  0  0  0  0  0  0  0  0  0  0  0
  189.8599  161.0657  121.3479 C   0  0  1  0  0  0  0  0  0  0  0  0
  188.7861  161.1060  120.4311 O   0  0  0  0  0  0  0  0  0  0  0  0
  189.3118  161.1795  122.7716 C   0  0  2  0  0  0  0  0  0  0  0  0
  189.0542  162.6469  123.0590 C   0  0  0  0  0  0  0  0  0  0  0  0
  190.2742  160.7327  123.6459 O   0  0  0  0  0  0  0  0  0  0  0  0
  191.3333  158.4333  126.3833 C   0  0  2  0  0  0  0  0  0  0  0  0
  192.4714  157.4314  126.3328 C   0  0  0  0  0  0  0  0  0  0  0  0
  191.0992  159.0293  127.7109 C   0  0  1  0  0  0  0  0  0  0  0  0
  189.9648  159.7843  127.8473 O   0  0  0  0  0  0  0  0  0  0  0  0
  190.0531  161.1440  127.6753 C   0  0  2  0  0  0  0  0  0  0  0  0
  191.1647  161.7571  128.2242 O   0  0  0  0  0  0  0  0  0  0  0  0
  190.9368  163.0258  128.6960 C   0  0  2  0  0  0  0  0  0  0  0  0
  192.1588  163.6398  129.3395 C   0  0  0  0  0  0  0  0  0  0  0  0
  189.8410  163.0484  129.7393 C   0  0  0  0  0  0  0  0  0  0  0  0
  188.5780  162.7451  129.0194 C   0  0  1  0  0  0  0  0  0  0  0  0
  188.7735  161.8579  127.8647 C   0  0  1  0  0  0  0  0  0  0  0  0
  188.3932  162.5940  126.7024 O   0  0  0  0  0  0  0  0  0  0  0  0
  187.5244  162.2852  129.9241 N   0  0  0  0  0  0  0  0  0  0  0  0
  187.3092  163.3979  130.8663 C   0  0  0  0  0  0  0  0  0  0  0  0
  188.0610  161.1732  130.6886 C   0  0  0  0  0  0  0  0  0  0  0  0
  191.4676  158.2474  128.9242 C   0  0  2  0  0  0  0  0  0  0  0  0
  191.8119  159.3114  129.9869 C   0  0  0  0  0  0  0  0  0  0  0  0
  192.7007  157.5807  128.7363 O   0  0  0  0  0  0  0  0  0  0  0  0
  190.5551  157.3032  129.5652 C   0  0  0  0  0  0  0  0  0  0  0  0
  191.1323  155.8872  129.7215 C   0  0  1  0  0  0  0  0  0  0  0  0
  191.7491  155.6707  131.0693 C   0  0  0  0  0  0  0  0  0  0  0  0
  190.0510  154.8534  129.5129 C   0  0  0  0  0  0  0  0  0  0  0  0
  190.4823  153.8228  128.5550 N   0  0  0  0  0  0  0  0  0  0  0  0
  191.5005  152.9756  129.0930 C   0  0  0  0  0  0  0  0  0  0  0  0
  189.3643  152.9901  128.1734 C   0  0  2  0  0  0  0  0  0  0  0  0
  189.1530  151.8998  129.2312 C   0  0  0  0  0  0  0  0  0  0  0  0
  189.7342  152.2931  126.8965 C   0  0  1  0  0  0  0  0  0  0  0  0
  189.1910  151.0019  126.9165 O   0  0  0  0  0  0  0  0  0  0  0  0
  189.1960  152.9649  125.6517 C   0  0  1  0  0  0  0  0  0  0  0  0
  187.7690  153.4483  125.8366 C   0  0  0  0  0  0  0  0  0  0  0  0
  189.1438  152.0073  124.6405 O   0  0  0  0  0  0  0  0  0  0  0  0
  1  2  1  0
  3  2  1  6
  3  4  1  0
  4  5  1  0
  5  6  2  0
  5  7  1  0
  7  8  1  6
  7  9  1  0
  9 10  1  1
 11 10  1  1
 11 12  1  0
 12 13  1  0
 13 14  1  1
 13 15  1  0
 15 16  1  0
 13 17  1  0
 17 18  1  6
 17 19  1  0
 19 20  1  1
 19 21  1  0
  9 22  1  0
 22 23  1  1
 22 24  1  0
 24 25  1  1
 26 25  1  1
 26 27  1  0
 27 28  1  0
 28 29  1  1
 28 30  1  0
 30 31  1  0
 31 32  1  0
 32 33  1  6
 31 34  1  1
 34 35  1  0
 34 36  1  0
 24 37  1  0
 37 38  1  1
 37 39  1  0
 37 40  1  0
 40 41  1  0
 41 42  1  1
 41 43  1  0
 43 44  1  0
 44 45  1  0
 44 46  1  0
 46 47  1  1
 46 48  1  0
 48 49  1  1
 48 50  1  0
 50 51  1  1
 50 52  1  0
 50  3  1  0
 21 11  1  0
 32 26  1  0
M  END
$$$$
