
     RDKit          3D

 52 54  0  0  0  0  0  0  0  0999 V2000
  115.2704  168.4318  142.8225 C   0  0  0  0  0  0  0  0  0  0  0  0
  115.8382  168.7684  144.1602 C   0  0  0  0  0  0  0  0  0  0  0  0
  117.3201  169.0679  144.1278 C   0  0  1  0  0  0  0  0  0  0  0  0
  117.9461  167.9466  143.5803 O   0  0  0  0  0  0  0  0  0  0  0  0
  119.1871  167.4509  143.8237 C   0  0  0  0  0  0  0  0  0  0  0  0
  119.8533  167.0485  142.8357 O   0  0  0  0  0  0  0  0  0  0  0  0
  119.8322  167.3429  145.1747 C   0  0  2  0  0  0  0  0  0  0  0  0
  121.2922  167.0140  144.9457 C   0  0  0  0  0  0  0  0  0  0  0  0
  119.2454  166.2657  145.9907 C   0  0  1  0  0  0  0  0  0  0  0  0
  119.6868  165.0457  145.4947 O   0  0  0  0  0  0  0  0  0  0  0  0
  118.7263  164.2569  144.9186 C   0  0  1  0  0  0  0  0  0  0  0  0
  118.3240  164.6134  143.5305 C   0  0  0  0  0  0  0  0  0  0  0  0
  117.6384  163.4039  142.8823 C   0  0  1  0  0  0  0  0  0  0  0  0
  116.5481  162.9920  143.8357 C   0  0  0  0  0  0  0  0  0  0  0  0
  117.0891  163.8732  141.7096 O   0  0  0  0  0  0  0  0  0  0  0  0
  117.0060  162.9505  140.6867 C   0  0  0  0  0  0  0  0  0  0  0  0
  118.6796  162.3461  142.6974 C   0  0  1  0  0  0  0  0  0  0  0  0
  119.1894  162.4268  141.3827 O   0  0  0  0  0  0  0  0  0  0  0  0
  119.8066  162.6267  143.6932 C   0  0  2  0  0  0  0  0  0  0  0  0
  120.6055  161.3487  143.8695 C   0  0  0  0  0  0  0  0  0  0  0  0
  119.2457  162.9536  144.9052 O   0  0  0  0  0  0  0  0  0  0  0  0
  119.2008  166.3672  147.4582 C   0  0  2  0  0  0  0  0  0  0  0  0
  117.9098  167.0634  147.8460 C   0  0  0  0  0  0  0  0  0  0  0  0
  120.3693  166.7428  148.2743 C   0  0  1  0  0  0  0  0  0  0  0  0
  121.5866  166.2926  147.8372 O   0  0  0  0  0  0  0  0  0  0  0  0
  122.1819  165.2497  148.5036 C   0  0  2  0  0  0  0  0  0  0  0  0
  122.2521  165.3663  149.8799 O   0  0  0  0  0  0  0  0  0  0  0  0
  123.3740  164.8073  150.4392 C   0  0  2  0  0  0  0  0  0  0  0  0
  123.4431  165.0053  151.9361 C   0  0  0  0  0  0  0  0  0  0  0  0
  124.6425  165.4002  149.8654 C   0  0  0  0  0  0  0  0  0  0  0  0
  124.7200  164.9294  148.4592 C   0  0  1  0  0  0  0  0  0  0  0  0
  123.3996  164.7330  147.8453 C   0  0  1  0  0  0  0  0  0  0  0  0
  123.2889  163.3464  147.5257 O   0  0  0  0  0  0  0  0  0  0  0  0
  125.6118  165.7585  147.6485 N   0  0  0  0  0  0  0  0  0  0  0  0
  126.1644  164.8504  146.6277 C   0  0  0  0  0  0  0  0  0  0  0  0
  126.7150  166.1716  148.4978 C   0  0  0  0  0  0  0  0  0  0  0  0
  120.4021  168.0929  148.9031 C   0  0  2  0  0  0  0  0  0  0  0  0
  121.2510  167.9109  150.1785 C   0  0  0  0  0  0  0  0  0  0  0  0
  119.1309  168.4373  149.4185 O   0  0  0  0  0  0  0  0  0  0  0  0
  120.9295  169.2720  148.2203 C   0  0  0  0  0  0  0  0  0  0  0  0
  119.9403  170.4465  148.1509 C   0  0  1  0  0  0  0  0  0  0  0  0
  120.1450  171.4281  149.2637 C   0  0  0  0  0  0  0  0  0  0  0  0
  120.0791  171.1728  146.8338 C   0  0  0  0  0  0  0  0  0  0  0  0
  118.7682  171.3577  146.1912 N   0  0  0  0  0  0  0  0  0  0  0  0
  117.9541  172.3065  146.8847 C   0  0  0  0  0  0  0  0  0  0  0  0
  118.9342  171.8210  144.8322 C   0  0  2  0  0  0  0  0  0  0  0  0
  119.1349  173.3415  144.8301 C   0  0  0  0  0  0  0  0  0  0  0  0
  117.6513  171.5495  144.1017 C   0  0  1  0  0  0  0  0  0  0  0  0
  117.4204  172.5941  143.1971 O   0  0  0  0  0  0  0  0  0  0  0  0
  117.6659  170.2736  143.2878 C   0  0  1  0  0  0  0  0  0  0  0  0
  118.9818  170.0791  142.5564 C   0  0  0  0  0  0  0  0  0  0  0  0
  116.6944  170.3910  142.2956 O   0  0  0  0  0  0  0  0  0  0  0  0
  1  2  1  0
  3  2  1  6
  3  4  1  0
  4  5  1  0
  5  6  2  0
  5  7  1  0
  7  8  1  6
  7  9  1  0
  9 10  1  1
 11 10  1  6
 11 12  1  0
 12 13  1  0
 13 14  1  1
 13 15  1  0
 15 16  1  0
 13 17  1  0
 17 18  1  6
 17 19  1  0
 19 20  1  1
 19 21  1  0
  9 22  1  0
 22 23  1  6
 22 24  1  0
 24 25  1  6
 26 25  1  6
 26 27  1  0
 27 28  1  0
 28 29  1  1
 28 30  1  0
 30 31  1  0
 31 32  1  0
 32 33  1  1
 31 34  1  6
 34 35  1  0
 34 36  1  0
 24 37  1  0
 37 38  1  1
 37 39  1  0
 37 40  1  0
 40 41  1  0
 41 42  1  1
 41 43  1  0
 43 44  1  0
 44 45  1  0
 44 46  1  0
 46 47  1  1
 46 48  1  0
 48 49  1  6
 48 50  1  0
 50 51  1  6
 50 52  1  0
 50  3  1  0
 21 11  1  0
 32 26  1  0
M  END
$$$$
