
     RDKit          3D

 52 54  0  0  0  0  0  0  0  0999 V2000
  144.5906  171.3703  131.8696 C   0  0  0  0  0  0  0  0  0  0  0  0
  144.7576  171.1481  133.3352 C   0  0  0  0  0  0  0  0  0  0  0  0
  146.0567  170.4638  133.6968 C   0  0  1  0  0  0  0  0  0  0  0  0
  147.0665  171.1138  132.9849 O   0  0  0  0  0  0  0  0  0  0  0  0
  148.2339  170.6158  132.5013 C   0  0  0  0  0  0  0  0  0  0  0  0
  149.2638  171.3261  132.6311 O   0  0  0  0  0  0  0  0  0  0  0  0
  148.3996  169.2865  131.8239 C   0  0  2  0  0  0  0  0  0  0  0  0
  149.8868  169.0243  131.7159 C   0  0  0  0  0  0  0  0  0  0  0  0
  147.8357  169.2777  130.4628 C   0  0  1  0  0  0  0  0  0  0  0  0
  148.6817  169.9984  129.6298 O   0  0  0  0  0  0  0  0  0  0  0  0
  148.0794  170.9564  128.8576 C   0  0  1  0  0  0  0  0  0  0  0  0
  148.9464  171.6425  127.8610 C   0  0  0  0  0  0  0  0  0  0  0  0
  148.0600  172.2993  126.7951 C   0  0  1  0  0  0  0  0  0  0  0  0
  147.0696  173.1450  127.5510 C   0  0  0  0  0  0  0  0  0  0  0  0
  148.9008  173.1019  126.0563 O   0  0  0  0  0  0  0  0  0  0  0  0
  148.3111  174.2180  125.4984 C   0  0  0  0  0  0  0  0  0  0  0  0
  147.4106  171.2006  126.0151 C   0  0  1  0  0  0  0  0  0  0  0  0
  148.1699  170.9521  124.8503 O   0  0  0  0  0  0  0  0  0  0  0  0
  147.4095  169.9476  126.8929 C   0  0  2  0  0  0  0  0  0  0  0  0
  146.3602  168.9956  126.3499 C   0  0  0  0  0  0  0  0  0  0  0  0
  147.0431  170.3093  128.1678 O   0  0  0  0  0  0  0  0  0  0  0  0
  147.2836  168.0439  129.8809 C   0  0  2  0  0  0  0  0  0  0  0  0
  145.8148  167.9608  130.2518 C   0  0  0  0  0  0  0  0  0  0  0  0
  147.9964  166.7540  129.9057 C   0  0  1  0  0  0  0  0  0  0  0  0
  149.3582  166.8088  129.7717 O   0  0  0  0  0  0  0  0  0  0  0  0
  149.9481  166.1147  128.7439 C   0  0  2  0  0  0  0  0  0  0  0  0
  149.5679  164.7923  128.6041 O   0  0  0  0  0  0  0  0  0  0  0  0
  150.5645  163.9605  128.1581 C   0  0  2  0  0  0  0  0  0  0  0  0
  150.1277  162.5160  128.0735 C   0  0  0  0  0  0  0  0  0  0  0  0
  151.7732  163.9944  129.0678 C   0  0  0  0  0  0  0  0  0  0  0  0
  152.3812  165.3385  128.8981 C   0  0  1  0  0  0  0  0  0  0  0  0
  151.3932  166.3815  128.5903 C   0  0  1  0  0  0  0  0  0  0  0  0
  151.7098  166.8882  127.2941 O   0  0  0  0  0  0  0  0  0  0  0  0
  153.2590  165.6916  130.0139 N   0  0  0  0  0  0  0  0  0  0  0  0
  153.9094  166.9516  129.6122 C   0  0  0  0  0  0  0  0  0  0  0  0
  154.2966  164.6783  130.0898 C   0  0  0  0  0  0  0  0  0  0  0  0
  147.5106  165.6825  130.8195 C   0  0  2  0  0  0  0  0  0  0  0  0
  147.9047  164.3639  130.1222 C   0  0  0  0  0  0  0  0  0  0  0  0
  146.0974  165.6268  130.8209 O   0  0  0  0  0  0  0  0  0  0  0  0
  147.9527  165.5643  132.2071 C   0  0  0  0  0  0  0  0  0  0  0  0
  146.8036  165.5471  133.2279 C   0  0  1  0  0  0  0  0  0  0  0  0
  146.3978  164.1548  133.6030 C   0  0  0  0  0  0  0  0  0  0  0  0
  147.2038  166.2884  134.4816 C   0  0  0  0  0  0  0  0  0  0  0  0
  146.1757  167.2680  134.8677 N   0  0  0  0  0  0  0  0  0  0  0  0
  144.9844  166.6414  135.3494 C   0  0  0  0  0  0  0  0  0  0  0  0
  146.6745  168.1382  135.9083 C   0  0  2  0  0  0  0  0  0  0  0  0
  146.5136  167.4522  137.2706 C   0  0  0  0  0  0  0  0  0  0  0  0
  145.8049  169.3615  135.9307 C   0  0  1  0  0  0  0  0  0  0  0  0
  145.6572  169.7828  137.2587 O   0  0  0  0  0  0  0  0  0  0  0  0
  146.3787  170.5372  135.1698 C   0  0  1  0  0  0  0  0  0  0  0  0
  147.8707  170.6934  135.4025 C   0  0  0  0  0  0  0  0  0  0  0  0
  145.7929  171.6969  135.6739 O   0  0  0  0  0  0  0  0  0  0  0  0
  1  2  1  0
  3  2  1  1
  3  4  1  0
  4  5  1  0
  5  6  2  0
  5  7  1  0
  7  8  1  6
  7  9  1  0
  9 10  1  6
 11 10  1  6
 11 12  1  0
 12 13  1  0
 13 14  1  1
 13 15  1  0
 15 16  1  0
 13 17  1  0
 17 18  1  6
 17 19  1  0
 19 20  1  6
 19 21  1  0
  9 22  1  0
 22 23  1  1
 22 24  1  0
 24 25  1  1
 26 25  1  1
 26 27  1  0
 27 28  1  0
 28 29  1  1
 28 30  1  0
 30 31  1  0
 31 32  1  0
 32 33  1  6
 31 34  1  1
 34 35  1  0
 34 36  1  0
 24 37  1  0
 37 38  1  6
 37 39  1  0
 37 40  1  0
 40 41  1  0
 41 42  1  1
 41 43  1  0
 43 44  1  0
 44 45  1  0
 44 46  1  0
 46 47  1  1
 46 48  1  0
 48 49  1  1
 48 50  1  0
 50 51  1  6
 50 52  1  0
 50  3  1  0
 21 11  1  0
 32 26  1  0
M  END
$$$$
