
     RDKit          3D

 52 54  0  0  0  0  0  0  0  0999 V2000
  169.1941  148.0261  121.2142 C   0  0  0  0  0  0  0  0  0  0  0  0
  170.3079  147.1045  120.8465 C   0  0  0  0  0  0  0  0  0  0  0  0
  170.5340  146.0003  121.8546 C   0  0  1  0  0  0  0  0  0  0  0  0
  169.4274  145.9986  122.7057 O   0  0  0  0  0  0  0  0  0  0  0  0
  169.3537  145.6584  124.0186 C   0  0  0  0  0  0  0  0  0  0  0  0
  168.3628  144.9757  124.3846 O   0  0  0  0  0  0  0  0  0  0  0  0
  170.3571  146.0285  125.0718 C   0  0  2  0  0  0  0  0  0  0  0  0
  170.0327  145.2093  126.3030 C   0  0  0  0  0  0  0  0  0  0  0  0
  170.2824  147.4531  125.4401 C   0  0  1  0  0  0  0  0  0  0  0  0
  169.1455  147.6502  126.2132 O   0  0  0  0  0  0  0  0  0  0  0  0
  168.6110  148.9109  126.1719 C   0  0  1  0  0  0  0  0  0  0  0  0
  167.2836  149.0441  125.5117 C   0  0  0  0  0  0  0  0  0  0  0  0
  166.6311  150.3576  125.9613 C   0  0  1  0  0  0  0  0  0  0  0  0
  167.6498  151.4335  125.6927 C   0  0  0  0  0  0  0  0  0  0  0  0
  165.5366  150.5275  125.1426 O   0  0  0  0  0  0  0  0  0  0  0  0
  164.9524  151.7769  125.1908 C   0  0  0  0  0  0  0  0  0  0  0  0
  166.3012  150.2185  127.4136 C   0  0  1  0  0  0  0  0  0  0  0  0
  164.9543  149.8137  127.5429 O   0  0  0  0  0  0  0  0  0  0  0  0
  167.2115  149.1342  127.9934 C   0  0  2  0  0  0  0  0  0  0  0  0
  167.2496  149.3103  129.5000 C   0  0  0  0  0  0  0  0  0  0  0  0
  168.4827  149.3261  127.5059 O   0  0  0  0  0  0  0  0  0  0  0  0
  171.4798  148.1823  125.8877 C   0  0  2  0  0  0  0  0  0  0  0  0
  172.1664  148.7619  124.6653 C   0  0  0  0  0  0  0  0  0  0  0  0
  172.3972  147.6659  126.9194 C   0  0  1  0  0  0  0  0  0  0  0  0
  171.8250  146.9596  127.9438 O   0  0  0  0  0  0  0  0  0  0  0  0
  171.4119  147.6396  129.0632 C   0  0  2  0  0  0  0  0  0  0  0  0
  172.3237  148.5238  129.6105 O   0  0  0  0  0  0  0  0  0  0  0  0
  172.2646  148.6241  130.9782 C   0  0  2  0  0  0  0  0  0  0  0  0
  173.3132  149.5547  131.5432 C   0  0  0  0  0  0  0  0  0  0  0  0
  172.4697  147.2833  131.6490 C   0  0  0  0  0  0  0  0  0  0  0  0
  171.2631  146.4758  131.3370 C   0  0  1  0  0  0  0  0  0  0  0  0
  170.6717  146.8064  130.0333 C   0  0  1  0  0  0  0  0  0  0  0  0
  169.3612  147.3130  130.2847 O   0  0  0  0  0  0  0  0  0  0  0  0
  171.4979  145.0427  131.5133 N   0  0  0  0  0  0  0  0  0  0  0  0
  172.5907  144.9469  132.4976 C   0  0  0  0  0  0  0  0  0  0  0  0
  172.0072  144.5263  130.2551 C   0  0  0  0  0  0  0  0  0  0  0  0
  173.7388  147.1695  126.5038 C   0  0  2  0  0  0  0  0  0  0  0  0
  174.6455  147.4193  127.7269 C   0  0  0  0  0  0  0  0  0  0  0  0
  174.3024  148.0123  125.5178 O   0  0  0  0  0  0  0  0  0  0  0  0
  173.9785  145.7899  126.0865 C   0  0  0  0  0  0  0  0  0  0  0  0
  174.6266  145.6623  124.6986 C   0  0  1  0  0  0  0  0  0  0  0  0
  176.1167  145.5310  124.7772 C   0  0  0  0  0  0  0  0  0  0  0  0
  174.0732  144.4611  123.9690 C   0  0  0  0  0  0  0  0  0  0  0  0
  173.6385  144.8217  122.6101 N   0  0  0  0  0  0  0  0  0  0  0  0
  174.7412  145.1172  121.7494 C   0  0  0  0  0  0  0  0  0  0  0  0
  172.8874  143.7385  122.0173 C   0  0  2  0  0  0  0  0  0  0  0  0
  173.8560  142.7099  121.4204 C   0  0  0  0  0  0  0  0  0  0  0  0
  172.0973  144.3076  120.8749 C   0  0  1  0  0  0  0  0  0  0  0  0
  172.0488  143.3582  119.8459 O   0  0  0  0  0  0  0  0  0  0  0  0
  170.6614  144.6348  121.2238 C   0  0  1  0  0  0  0  0  0  0  0  0
  170.0275  143.5631  122.0922 C   0  0  0  0  0  0  0  0  0  0  0  0
  169.9278  144.6456  120.0389 O   0  0  0  0  0  0  0  0  0  0  0  0
  1  2  1  0
  3  2  1  6
  3  4  1  0
  4  5  1  0
  5  6  2  0
  5  7  1  0
  7  8  1  1
  7  9  1  0
  9 10  1  1
 11 10  1  1
 11 12  1  0
 12 13  1  0
 13 14  1  1
 13 15  1  0
 15 16  1  0
 13 17  1  0
 17 18  1  6
 17 19  1  0
 19 20  1  1
 19 21  1  0
  9 22  1  0
 22 23  1  6
 22 24  1  0
 24 25  1  6
 26 25  1  6
 26 27  1  0
 27 28  1  0
 28 29  1  1
 28 30  1  0
 30 31  1  0
 31 32  1  0
 32 33  1  1
 31 34  1  6
 34 35  1  0
 34 36  1  0
 24 37  1  0
 37 38  1  1
 37 39  1  0
 37 40  1  0
 40 41  1  0
 41 42  1  1
 41 43  1  0
 43 44  1  0
 44 45  1  0
 44 46  1  0
 46 47  1  6
 46 48  1  0
 48 49  1  6
 48 50  1  0
 50 51  1  1
 50 52  1  0
 50  3  1  0
 21 11  1  0
 32 26  1  0
M  END
$$$$
