
     RDKit          3D

 52 54  0  0  0  0  0  0  0  0999 V2000
  151.9955  166.1408  126.5404 C   0  0  0  0  0  0  0  0  0  0  0  0
  152.6486  165.5829  127.7599 C   0  0  0  0  0  0  0  0  0  0  0  0
  151.8706  165.8393  129.0309 C   0  0  1  0  0  0  0  0  0  0  0  0
  150.5898  165.3210  128.8311 O   0  0  0  0  0  0  0  0  0  0  0  0
  149.4040  165.7393  129.3446 C   0  0  0  0  0  0  0  0  0  0  0  0
  148.5999  164.8556  129.7378 O   0  0  0  0  0  0  0  0  0  0  0  0
  148.9710  167.1699  129.4833 C   0  0  2  0  0  0  0  0  0  0  0  0
  147.7325  167.1776  130.3541 C   0  0  0  0  0  0  0  0  0  0  0  0
  148.6202  167.7766  128.1874 C   0  0  1  0  0  0  0  0  0  0  0  0
  147.3940  167.2678  127.7791 O   0  0  0  0  0  0  0  0  0  0  0  0
  147.1507  165.9628  128.1175 C   0  0  1  0  0  0  0  0  0  0  0  0
  147.1491  164.9800  126.9997 C   0  0  0  0  0  0  0  0  0  0  0  0
  147.3435  163.5704  127.5729 C   0  0  1  0  0  0  0  0  0  0  0  0
  146.2893  163.4122  128.6364 C   0  0  0  0  0  0  0  0  0  0  0  0
  147.0951  162.7076  126.5284 O   0  0  0  0  0  0  0  0  0  0  0  0
  145.8268  162.7838  125.9895 C   0  0  0  0  0  0  0  0  0  0  0  0
  148.7347  163.4975  128.1176 C   0  0  1  0  0  0  0  0  0  0  0  0
  149.5823  162.9297  127.1408 O   0  0  0  0  0  0  0  0  0  0  0  0
  149.1921  164.9274  128.4123 C   0  0  2  0  0  0  0  0  0  0  0  0
  150.3531  164.8568  129.3867 C   0  0  0  0  0  0  0  0  0  0  0  0
  148.1587  165.5981  129.0227 O   0  0  0  0  0  0  0  0  0  0  0  0
  148.8129  169.2161  127.9494 C   0  0  2  0  0  0  0  0  0  0  0  0
  150.2180  169.4245  127.4165 C   0  0  0  0  0  0  0  0  0  0  0  0
  148.3525  170.2551  128.8880 C   0  0  1  0  0  0  0  0  0  0  0  0
  147.1754  170.0056  129.5420 O   0  0  0  0  0  0  0  0  0  0  0  0
  146.0147  170.5386  129.0370 C   0  0  2  0  0  0  0  0  0  0  0  0
  146.0348  171.8941  128.7634 O   0  0  0  0  0  0  0  0  0  0  0  0
  144.8376  172.5320  128.9728 C   0  0  2  0  0  0  0  0  0  0  0  0
  144.9145  174.0200  128.7188 C   0  0  0  0  0  0  0  0  0  0  0  0
  144.3514  172.3606  130.3955 C   0  0  0  0  0  0  0  0  0  0  0  0
  143.9782  170.9301  130.5356 C   0  0  1  0  0  0  0  0  0  0  0  0
  144.7889  170.0396  129.6938 C   0  0  1  0  0  0  0  0  0  0  0  0
  143.9001  169.4161  128.7672 O   0  0  0  0  0  0  0  0  0  0  0  0
  143.9284  170.5078  131.9353 N   0  0  0  0  0  0  0  0  0  0  0  0
  144.4071  169.1139  131.9371 C   0  0  0  0  0  0  0  0  0  0  0  0
  142.5320  170.4825  132.3336 C   0  0  0  0  0  0  0  0  0  0  0  0
  149.3636  170.9892  129.6991 C   0  0  2  0  0  0  0  0  0  0  0  0
  148.7345  172.3757  129.9487 C   0  0  0  0  0  0  0  0  0  0  0  0
  150.5036  171.2971  128.9209 O   0  0  0  0  0  0  0  0  0  0  0  0
  149.8374  170.5109  130.9958 C   0  0  0  0  0  0  0  0  0  0  0  0
  151.3649  170.3641  131.0857 C   0  0  1  0  0  0  0  0  0  0  0  0
  152.0176  171.5729  131.6829 C   0  0  0  0  0  0  0  0  0  0  0  0
  151.7284  169.1573  131.9181 C   0  0  0  0  0  0  0  0  0  0  0  0
  152.7083  168.3094  131.2206 N   0  0  0  0  0  0  0  0  0  0  0  0
  153.9971  168.9232  131.1425 C   0  0  0  0  0  0  0  0  0  0  0  0
  152.8570  167.0446  131.9041 C   0  0  2  0  0  0  0  0  0  0  0  0
  153.8430  167.2040  133.0680 C   0  0  0  0  0  0  0  0  0  0  0  0
  153.4762  166.0777  130.9372 C   0  0  1  0  0  0  0  0  0  0  0  0
  154.3478  165.2360  131.6405 O   0  0  0  0  0  0  0  0  0  0  0  0
  152.4769  165.1768  130.2444 C   0  0  1  0  0  0  0  0  0  0  0  0
  151.4044  164.6774  131.1956 C   0  0  0  0  0  0  0  0  0  0  0  0
  153.1577  164.0408  129.8106 O   0  0  0  0  0  0  0  0  0  0  0  0
  1  2  1  0
  3  2  1  6
  3  4  1  0
  4  5  1  0
  5  6  2  0
  5  7  1  0
  7  8  1  1
  7  9  1  0
  9 10  1  1
 11 10  1  6
 11 12  1  0
 12 13  1  0
 13 14  1  1
 13 15  1  0
 15 16  1  0
 13 17  1  0
 17 18  1  6
 17 19  1  0
 19 20  1  1
 19 21  1  0
  9 22  1  0
 22 23  1  1
 22 24  1  0
 24 25  1  1
 26 25  1  1
 26 27  1  0
 27 28  1  0
 28 29  1  1
 28 30  1  0
 30 31  1  0
 31 32  1  0
 32 33  1  6
 31 34  1  1
 34 35  1  0
 34 36  1  0
 24 37  1  0
 37 38  1  1
 37 39  1  0
 37 40  1  0
 40 41  1  0
 41 42  1  1
 41 43  1  0
 43 44  1  0
 44 45  1  0
 44 46  1  0
 46 47  1  1
 46 48  1  0
 48 49  1  1
 48 50  1  0
 50 51  1  1
 50 52  1  0
 50  3  1  0
 21 11  1  0
 32 26  1  0
M  END
$$$$
