
     RDKit          3D

 52 54  0  0  0  0  0  0  0  0999 V2000
  140.9219  168.4760  130.8274 C   0  0  0  0  0  0  0  0  0  0  0  0
  141.4694  169.8497  130.9863 C   0  0  0  0  0  0  0  0  0  0  0  0
  142.8725  169.9200  131.5483 C   0  0  1  0  0  0  0  0  0  0  0  0
  143.7892  169.5760  130.6379 O   0  0  0  0  0  0  0  0  0  0  0  0
  144.3165  168.6707  129.8380 C   0  0  0  0  0  0  0  0  0  0  0  0
  143.9600  167.5083  129.4896 O   0  0  0  0  0  0  0  0  0  0  0  0
  145.6261  169.0694  129.1809 C   0  0  2  0  0  0  0  0  0  0  0  0
  145.5388  168.5909  127.7564 C   0  0  0  0  0  0  0  0  0  0  0  0
  146.8258  168.4697  129.9410 C   0  0  1  0  0  0  0  0  0  0  0  0
  147.2744  167.4287  129.1460 O   0  0  0  0  0  0  0  0  0  0  0  0
  148.1221  166.5371  129.7442 C   0  0  1  0  0  0  0  0  0  0  0  0
  148.0502  165.1184  129.3105 C   0  0  0  0  0  0  0  0  0  0  0  0
  148.5608  164.7898  127.9587 C   0  0  1  0  0  0  0  0  0  0  0  0
  149.1834  163.3737  128.0853 C   0  0  0  0  0  0  0  0  0  0  0  0
  147.6190  164.7018  126.9515 O   0  0  0  0  0  0  0  0  0  0  0  0
  147.3318  163.4279  126.5605 C   0  0  0  0  0  0  0  0  0  0  0  0
  149.7217  165.6564  127.5050 C   0  0  1  0  0  0  0  0  0  0  0  0
  149.8250  165.5645  126.1157 O   0  0  0  0  0  0  0  0  0  0  0  0
  149.4940  167.0524  127.9763 C   0  0  2  0  0  0  0  0  0  0  0  0
  150.6141  167.9649  127.6021 C   0  0  0  0  0  0  0  0  0  0  0  0
  149.4250  166.9843  129.3773 O   0  0  0  0  0  0  0  0  0  0  0  0
  147.8515  169.5490  130.1395 C   0  0  2  0  0  0  0  0  0  0  0  0
  148.4588  169.7603  128.7593 C   0  0  0  0  0  0  0  0  0  0  0  0
  148.9082  169.3725  131.1410 C   0  0  1  0  0  0  0  0  0  0  0  0
  149.5334  170.6008  131.3714 O   0  0  0  0  0  0  0  0  0  0  0  0
  150.8792  170.6266  131.5305 C   0  0  2  0  0  0  0  0  0  0  0  0
  151.2216  170.6606  132.9189 O   0  0  0  0  0  0  0  0  0  0  0  0
  152.4116  169.9421  133.0154 C   0  0  2  0  0  0  0  0  0  0  0  0
  152.9926  169.9961  134.4047 C   0  0  0  0  0  0  0  0  0  0  0  0
  153.4371  170.5106  132.0504 C   0  0  0  0  0  0  0  0  0  0  0  0
  153.0128  171.8654  131.5496 C   0  0  1  0  0  0  0  0  0  0  0  0
  151.6220  171.7988  130.9576 C   0  0  1  0  0  0  0  0  0  0  0  0
  151.6719  171.7321  129.5743 O   0  0  0  0  0  0  0  0  0  0  0  0
  153.0305  172.7763  132.6887 N   0  0  0  0  0  0  0  0  0  0  0  0
  151.7260  173.3855  132.8813 C   0  0  0  0  0  0  0  0  0  0  0  0
  153.9583  173.8665  132.3579 C   0  0  0  0  0  0  0  0  0  0  0  0
  148.5022  168.9049  132.5233 C   0  0  2  0  0  0  0  0  0  0  0  0
  149.8262  168.4263  133.1752 C   0  0  0  0  0  0  0  0  0  0  0  0
  147.7608  167.7741  132.4353 O   0  0  0  0  0  0  0  0  0  0  0  0
  147.9984  169.9787  133.4056 C   0  0  0  0  0  0  0  0  0  0  0  0
  146.6708  169.8290  134.0554 C   0  0  2  0  0  0  0  0  0  0  0  0
  146.6292  169.0078  135.2881 C   0  0  0  0  0  0  0  0  0  0  0  0
  145.7810  169.3224  133.1322 F   0  0  0  0  0  0  0  0  0  0  0  0
  146.0620  171.1701  134.4099 C   0  0  0  0  0  0  0  0  0  0  0  0
  146.4099  171.6132  135.5122 O   0  0  0  0  0  0  0  0  0  0  0  0
  145.1235  171.9005  133.5123 C   0  0  2  0  0  0  0  0  0  0  0  0
  145.1014  173.3392  134.0208 C   0  0  0  0  0  0  0  0  0  0  0  0
  143.7663  171.3013  133.4420 C   0  0  1  0  0  0  0  0  0  0  0  0
  142.9475  172.0498  134.2874 O   0  0  0  0  0  0  0  0  0  0  0  0
  143.1213  171.3136  132.0684 C   0  0  1  0  0  0  0  0  0  0  0  0
  143.8978  172.1690  131.0965 C   0  0  0  0  0  0  0  0  0  0  0  0
  141.8522  171.9342  132.1666 O   0  0  0  0  0  0  0  0  0  0  0  0
  1  2  1  0
  3  2  1  6
  3  4  1  0
  4  5  1  0
  5  6  2  0
  5  7  1  0
  7  8  1  6
  7  9  1  0
  9 10  1  6
 11 10  1  6
 11 12  1  0
 12 13  1  0
 13 14  1  1
 13 15  1  0
 15 16  1  0
 13 17  1  0
 17 18  1  6
 17 19  1  0
 19 20  1  1
 19 21  1  0
  9 22  1  0
 22 23  1  6
 22 24  1  0
 24 25  1  1
 26 25  1  1
 26 27  1  0
 27 28  1  0
 28 29  1  1
 28 30  1  0
 30 31  1  0
 31 32  1  0
 32 33  1  6
 31 34  1  1
 34 35  1  0
 34 36  1  0
 24 37  1  0
 37 38  1  1
 37 39  1  0
 37 40  1  0
 40 41  1  0
 41 42  1  1
 41 43  1  0
 41 44  1  0
 44 45  2  0
 44 46  1  0
 46 47  1  1
 46 48  1  0
 48 49  1  1
 48 50  1  0
 50 51  1  6
 50 52  1  0
 50  3  1  0
 21 11  1  0
 32 26  1  0
M  END
$$$$
