
     RDKit          3D

 52 54  0  0  0  0  0  0  0  0999 V2000
  187.8888  151.3360  124.0231 C   0  0  0  0  0  0  0  0  0  0  0  0
  187.2684  151.7024  125.3242 C   0  0  0  0  0  0  0  0  0  0  0  0
  188.0816  152.6506  126.1782 C   0  0  1  0  0  0  0  0  0  0  0  0
  188.0476  153.8996  125.7025 O   0  0  0  0  0  0  0  0  0  0  0  0
  188.3260  154.7620  124.7453 C   0  0  0  0  0  0  0  0  0  0  0  0
  188.7579  154.6360  123.5632 O   0  0  0  0  0  0  0  0  0  0  0  0
  188.0943  156.2204  125.0986 C   0  0  2  0  0  0  0  0  0  0  0  0
  187.4627  156.8469  123.8843 C   0  0  0  0  0  0  0  0  0  0  0  0
  189.4157  156.9028  125.5047 C   0  0  1  0  0  0  0  0  0  0  0  0
  189.7610  157.6959  124.4236 O   0  0  0  0  0  0  0  0  0  0  0  0
  190.9434  158.3757  124.5295 C   0  0  1  0  0  0  0  0  0  0  0  0
  192.0270  158.0291  123.5748 C   0  0  0  0  0  0  0  0  0  0  0  0
  191.8491  158.4368  122.1612 C   0  0  1  0  0  0  0  0  0  0  0  0
  193.2724  158.7862  121.6499 C   0  0  0  0  0  0  0  0  0  0  0  0
  191.3628  157.4715  121.3005 O   0  0  0  0  0  0  0  0  0  0  0  0
  190.8862  157.9596  120.1203 C   0  0  0  0  0  0  0  0  0  0  0  0
  191.0722  159.7283  121.9797 C   0  0  1  0  0  0  0  0  0  0  0  0
  190.6009  159.7794  120.6665 O   0  0  0  0  0  0  0  0  0  0  0  0
  189.9761  159.7772  122.9891 C   0  0  2  0  0  0  0  0  0  0  0  0
  189.1841  161.0391  122.9023 C   0  0  0  0  0  0  0  0  0  0  0  0
  190.6014  159.7302  124.2458 O   0  0  0  0  0  0  0  0  0  0  0  0
  189.1794  157.6868  126.7640 C   0  0  2  0  0  0  0  0  0  0  0  0
  188.3570  158.8887  126.3196 C   0  0  0  0  0  0  0  0  0  0  0  0
  190.3213  158.1211  127.5753 C   0  0  1  0  0  0  0  0  0  0  0  0
  189.8635  158.5383  128.8279 O   0  0  0  0  0  0  0  0  0  0  0  0
  190.1412  159.8009  129.2351 C   0  0  2  0  0  0  0  0  0  0  0  0
  191.1659  159.7943  130.2332 O   0  0  0  0  0  0  0  0  0  0  0  0
  191.8830  160.9703  130.0228 C   0  0  2  0  0  0  0  0  0  0  0  0
  192.9267  161.1932  131.0865 C   0  0  0  0  0  0  0  0  0  0  0  0
  190.9380  162.1590  130.0296 C   0  0  0  0  0  0  0  0  0  0  0  0
  189.5996  161.7801  130.6051 C   0  0  1  0  0  0  0  0  0  0  0  0
  189.0312  160.5813  129.8777 C   0  0  1  0  0  0  0  0  0  0  0  0
  188.0851  160.9687  128.9421 O   0  0  0  0  0  0  0  0  0  0  0  0
  189.8051  161.4617  132.0135 N   0  0  0  0  0  0  0  0  0  0  0  0
  190.1040  162.6621  132.7747 C   0  0  0  0  0  0  0  0  0  0  0  0
  190.9962  160.6052  132.0954 C   0  0  0  0  0  0  0  0  0  0  0  0
  191.3891  157.0969  127.8997 C   0  0  2  0  0  0  0  0  0  0  0  0
  192.6027  157.9391  128.3742 C   0  0  0  0  0  0  0  0  0  0  0  0
  191.8324  156.5076  126.7630 O   0  0  0  0  0  0  0  0  0  0  0  0
  191.0588  156.2127  129.0374 C   0  0  0  0  0  0  0  0  0  0  0  0
  191.1115  154.7389  128.8576 C   0  0  2  0  0  0  0  0  0  0  0  0
  192.4496  154.1102  128.9569 C   0  0  0  0  0  0  0  0  0  0  0  0
  190.5399  154.4205  127.6441 F   0  0  0  0  0  0  0  0  0  0  0  0
  190.2216  154.0177  129.8491 C   0  0  0  0  0  0  0  0  0  0  0  0
  190.7604  153.7766  130.9372 O   0  0  0  0  0  0  0  0  0  0  0  0
  188.8154  153.6288  129.5474 C   0  0  2  0  0  0  0  0  0  0  0  0
  188.1670  153.3429  130.8990 C   0  0  0  0  0  0  0  0  0  0  0  0
  188.6938  152.4869  128.6054 C   0  0  1  0  0  0  0  0  0  0  0  0
  188.4476  151.3500  129.3749 O   0  0  0  0  0  0  0  0  0  0  0  0
  187.5670  152.5958  127.5948 C   0  0  1  0  0  0  0  0  0  0  0  0
  186.6348  153.7375  127.9214 C   0  0  0  0  0  0  0  0  0  0  0  0
  186.7633  151.4330  127.6816 O   0  0  0  0  0  0  0  0  0  0  0  0
  1  2  1  0
  3  2  1  6
  3  4  1  0
  4  5  1  0
  5  6  2  0
  5  7  1  0
  7  8  1  6
  7  9  1  0
  9 10  1  6
 11 10  1  6
 11 12  1  0
 12 13  1  0
 13 14  1  6
 13 15  1  0
 15 16  1  0
 13 17  1  0
 17 18  1  6
 17 19  1  0
 19 20  1  1
 19 21  1  0
  9 22  1  0
 22 23  1  6
 22 24  1  0
 24 25  1  1
 26 25  1  1
 26 27  1  0
 27 28  1  0
 28 29  1  1
 28 30  1  0
 30 31  1  0
 31 32  1  0
 32 33  1  6
 31 34  1  1
 34 35  1  0
 34 36  1  0
 24 37  1  0
 37 38  1  1
 37 39  1  0
 37 40  1  0
 40 41  1  0
 41 42  1  6
 41 43  1  0
 41 44  1  0
 44 45  2  0
 44 46  1  0
 46 47  1  1
 46 48  1  0
 48 49  1  1
 48 50  1  0
 50 51  1  1
 50 52  1  0
 50  3  1  0
 21 11  1  0
 32 26  1  0
M  END
$$$$
