
     RDKit          3D

 52 54  0  0  0  0  0  0  0  0999 V2000
  185.3845  152.0760  128.9162 C   0  0  0  0  0  0  0  0  0  0  0  0
  186.0977  152.7702  130.0215 C   0  0  0  0  0  0  0  0  0  0  0  0
  186.8400  154.0253  129.6172 C   0  0  1  0  0  0  0  0  0  0  0  0
  186.9466  154.8874  130.6335 O   0  0  0  0  0  0  0  0  0  0  0  0
  186.3777  155.6877  131.5130 C   0  0  0  0  0  0  0  0  0  0  0  0
  185.1762  155.8883  131.8529 O   0  0  0  0  0  0  0  0  0  0  0  0
  187.3313  156.5693  132.2998 C   0  0  2  0  0  0  0  0  0  0  0  0
  186.8297  156.5609  133.7190 C   0  0  0  0  0  0  0  0  0  0  0  0
  187.3929  157.9863  131.6956 C   0  0  1  0  0  0  0  0  0  0  0  0
  186.6675  158.7827  132.5653 O   0  0  0  0  0  0  0  0  0  0  0  0
  187.3833  159.4016  133.5533 C   0  0  1  0  0  0  0  0  0  0  0  0
  186.9224  160.7391  134.0055 C   0  0  0  0  0  0  0  0  0  0  0  0
  185.6679  160.8002  134.7921 C   0  0  1  0  0  0  0  0  0  0  0  0
  185.8738  161.9550  135.8086 C   0  0  0  0  0  0  0  0  0  0  0  0
  184.5185  161.1115  134.0913 O   0  0  0  0  0  0  0  0  0  0  0  0
  183.3986  161.2062  134.8626 C   0  0  0  0  0  0  0  0  0  0  0  0
  185.4242  159.5853  135.6691 C   0  0  1  0  0  0  0  0  0  0  0  0
  184.0695  159.5474  136.0046 O   0  0  0  0  0  0  0  0  0  0  0  0
  185.8727  158.3656  134.9382 C   0  0  2  0  0  0  0  0  0  0  0  0
  185.7014  157.1253  135.7503 C   0  0  0  0  0  0  0  0  0  0  0  0
  187.2422  158.5452  134.6842 O   0  0  0  0  0  0  0  0  0  0  0  0
  188.8344  158.3930  131.5814 C   0  0  2  0  0  0  0  0  0  0  0  0
  189.2703  158.6693  133.0138 C   0  0  0  0  0  0  0  0  0  0  0  0
  189.2075  159.5115  130.7092 C   0  0  1  0  0  0  0  0  0  0  0  0
  190.5912  159.5012  130.5143 O   0  0  0  0  0  0  0  0  0  0  0  0
  191.2991  160.6176  130.8136 C   0  0  2  0  0  0  0  0  0  0  0  0
  191.9918  161.0994  129.6586 O   0  0  0  0  0  0  0  0  0  0  0  0
  192.0045  162.4859  129.7969 C   0  0  2  0  0  0  0  0  0  0  0  0
  192.8252  163.1529  128.7235 C   0  0  0  0  0  0  0  0  0  0  0  0
  192.5907  162.8645  131.1456 C   0  0  0  0  0  0  0  0  0  0  0  0
  193.3014  161.6945  131.7718 C   0  0  1  0  0  0  0  0  0  0  0  0
  192.3821  160.4950  131.8461 C   0  0  1  0  0  0  0  0  0  0  0  0
  191.8482  160.3543  133.1171 O   0  0  0  0  0  0  0  0  0  0  0  0
  194.4581  161.3895  130.9372 N   0  0  0  0  0  0  0  0  0  0  0  0
  195.2066  160.2709  131.4831 C   0  0  0  0  0  0  0  0  0  0  0  0
  195.3496  162.5563  130.9883 C   0  0  0  0  0  0  0  0  0  0  0  0
  188.6415  159.5326  129.3043 C   0  0  2  0  0  0  0  0  0  0  0  0
  188.8657  160.9887  128.8179 C   0  0  0  0  0  0  0  0  0  0  0  0
  187.2924  159.4111  129.3419 O   0  0  0  0  0  0  0  0  0  0  0  0
  189.3721  158.6822  128.3409 C   0  0  0  0  0  0  0  0  0  0  0  0
  188.6290  157.6660  127.5520 C   0  0  2  0  0  0  0  0  0  0  0  0
  187.9204  158.1564  126.3465 C   0  0  0  0  0  0  0  0  0  0  0  0
  187.7360  157.0258  128.3847 F   0  0  0  0  0  0  0  0  0  0  0  0
  189.5305  156.5383  127.0934 C   0  0  0  0  0  0  0  0  0  0  0  0
  190.1157  156.7552  126.0242 O   0  0  0  0  0  0  0  0  0  0  0  0
  189.7039  155.2722  127.8594 C   0  0  2  0  0  0  0  0  0  0  0  0
  190.9737  154.6279  127.3104 C   0  0  0  0  0  0  0  0  0  0  0  0
  188.5314  154.3628  127.7956 C   0  0  1  0  0  0  0  0  0  0  0  0
  188.8253  153.3873  126.8432 O   0  0  0  0  0  0  0  0  0  0  0  0
  188.1987  153.6403  129.0881 C   0  0  1  0  0  0  0  0  0  0  0  0
  189.2929  153.8048  130.1152 C   0  0  0  0  0  0  0  0  0  0  0  0
  188.1462  152.2486  128.8314 O   0  0  0  0  0  0  0  0  0  0  0  0
  1  2  1  0
  3  2  1  1
  3  4  1  0
  4  5  1  0
  5  6  2  0
  5  7  1  0
  7  8  1  1
  7  9  1  0
  9 10  1  1
 11 10  1  6
 11 12  1  0
 12 13  1  0
 13 14  1  1
 13 15  1  0
 15 16  1  0
 13 17  1  0
 17 18  1  6
 17 19  1  0
 19 20  1  1
 19 21  1  0
  9 22  1  0
 22 23  1  1
 22 24  1  0
 24 25  1  6
 26 25  1  6
 26 27  1  0
 27 28  1  0
 28 29  1  6
 28 30  1  0
 30 31  1  0
 31 32  1  0
 32 33  1  1
 31 34  1  6
 34 35  1  0
 34 36  1  0
 24 37  1  0
 37 38  1  6
 37 39  1  0
 37 40  1  0
 40 41  1  0
 41 42  1  6
 41 43  1  0
 41 44  1  0
 44 45  2  0
 44 46  1  0
 46 47  1  6
 46 48  1  0
 48 49  1  6
 48 50  1  0
 50 51  1  1
 50 52  1  0
 50  3  1  0
 21 11  1  0
 32 26  1  0
M  END
$$$$
