
     RDKit          3D

 52 54  0  0  0  0  0  0  0  0999 V2000
  149.8945  166.3638  135.8338 C   0  0  0  0  0  0  0  0  0  0  0  0
  149.6135  167.4226  134.8278 C   0  0  0  0  0  0  0  0  0  0  0  0
  149.6762  166.9697  133.3854 C   0  0  1  0  0  0  0  0  0  0  0  0
  149.2496  167.9207  132.5480 O   0  0  0  0  0  0  0  0  0  0  0  0
  148.2815  168.6978  132.1048 C   0  0  0  0  0  0  0  0  0  0  0  0
  147.1111  168.9448  132.5155 O   0  0  0  0  0  0  0  0  0  0  0  0
  148.5999  169.4723  130.8382 C   0  0  2  0  0  0  0  0  0  0  0  0
  148.0376  170.8535  131.0433 C   0  0  0  0  0  0  0  0  0  0  0  0
  148.0123  168.7650  129.6007 C   0  0  1  0  0  0  0  0  0  0  0  0
  146.9116  169.5228  129.2390 O   0  0  0  0  0  0  0  0  0  0  0  0
  146.7776  170.7288  129.8709 C   0  0  1  0  0  0  0  0  0  0  0  0
  146.5411  171.9279  129.0270 C   0  0  0  0  0  0  0  0  0  0  0  0
  145.2168  172.0541  128.3740 C   0  0  1  0  0  0  0  0  0  0  0  0
  144.9069  173.5750  128.3593 C   0  0  0  0  0  0  0  0  0  0  0  0
  145.1387  171.6380  127.0588 O   0  0  0  0  0  0  0  0  0  0  0  0
  144.1302  172.2149  126.3459 C   0  0  0  0  0  0  0  0  0  0  0  0
  144.0708  171.4590  129.1721 C   0  0  1  0  0  0  0  0  0  0  0  0
  142.9956  171.2437  128.3080 O   0  0  0  0  0  0  0  0  0  0  0  0
  144.5417  170.2073  129.8315 C   0  0  2  0  0  0  0  0  0  0  0  0
  143.4804  169.5770  130.6704 C   0  0  0  0  0  0  0  0  0  0  0  0
  145.6048  170.5839  130.6682 O   0  0  0  0  0  0  0  0  0  0  0  0
  149.0707  168.7104  128.5361 C   0  0  2  0  0  0  0  0  0  0  0  0
  149.1786  170.1417  128.0281 C   0  0  0  0  0  0  0  0  0  0  0  0
  148.9245  167.7793  127.4125 C   0  0  1  0  0  0  0  0  0  0  0  0
  150.1454  167.6733  126.7411 O   0  0  0  0  0  0  0  0  0  0  0  0
  150.1368  167.5249  125.3939 C   0  0  2  0  0  0  0  0  0  0  0  0
  150.3890  166.1632  125.0357 O   0  0  0  0  0  0  0  0  0  0  0  0
  149.6440  165.9501  123.8776 C   0  0  2  0  0  0  0  0  0  0  0  0
  149.9052  164.5918  123.2800 C   0  0  0  0  0  0  0  0  0  0  0  0
  149.9944  167.0004  122.8382 C   0  0  0  0  0  0  0  0  0  0  0  0
  151.2630  167.7218  123.2076 C   0  0  1  0  0  0  0  0  0  0  0  0
  151.1606  168.2899  124.6062 C   0  0  1  0  0  0  0  0  0  0  0  0
  150.8591  169.6422  124.5739 O   0  0  0  0  0  0  0  0  0  0  0  0
  152.3514  166.7532  123.1377 N   0  0  0  0  0  0  0  0  0  0  0  0
  153.6391  167.4169  123.2437 C   0  0  0  0  0  0  0  0  0  0  0  0
  152.3028  166.1417  121.8026 C   0  0  0  0  0  0  0  0  0  0  0  0
  148.5550  166.3442  127.7263 C   0  0  2  0  0  0  0  0  0  0  0  0
  148.0780  165.7612  126.3699 C   0  0  0  0  0  0  0  0  0  0  0  0
  147.4436  166.3061  128.5005 O   0  0  0  0  0  0  0  0  0  0  0  0
  149.6956  165.4976  128.1357 C   0  0  0  0  0  0  0  0  0  0  0  0
  149.6258  164.7448  129.4145 C   0  0  2  0  0  0  0  0  0  0  0  0
  148.8835  163.4626  129.3851 C   0  0  0  0  0  0  0  0  0  0  0  0
  149.0903  165.5668  130.3832 F   0  0  0  0  0  0  0  0  0  0  0  0
  151.0037  164.4327  129.9612 C   0  0  0  0  0  0  0  0  0  0  0  0
  151.5032  163.3890  129.5211 O   0  0  0  0  0  0  0  0  0  0  0  0
  151.7054  165.3042  130.9452 C   0  0  2  0  0  0  0  0  0  0  0  0
  153.1727  164.8878  130.8929 C   0  0  0  0  0  0  0  0  0  0  0  0
  151.1439  165.2375  132.3185 C   0  0  1  0  0  0  0  0  0  0  0  0
  151.9670  164.3840  133.0529 O   0  0  0  0  0  0  0  0  0  0  0  0
  151.0910  166.5586  133.0634 C   0  0  1  0  0  0  0  0  0  0  0  0
  151.8615  167.6367  132.3400 C   0  0  0  0  0  0  0  0  0  0  0  0
  151.7542  166.4079  134.3056 O   0  0  0  0  0  0  0  0  0  0  0  0
  1  2  1  0
  3  2  1  1
  3  4  1  0
  4  5  1  0
  5  6  2  0
  5  7  1  0
  7  8  1  1
  7  9  1  0
  9 10  1  6
 11 10  1  6
 11 12  1  0
 12 13  1  0
 13 14  1  6
 13 15  1  0
 15 16  1  0
 13 17  1  0
 17 18  1  6
 17 19  1  0
 19 20  1  1
 19 21  1  0
  9 22  1  0
 22 23  1  6
 22 24  1  0
 24 25  1  1
 26 25  1  1
 26 27  1  0
 27 28  1  0
 28 29  1  6
 28 30  1  0
 30 31  1  0
 31 32  1  0
 32 33  1  6
 31 34  1  1
 34 35  1  0
 34 36  1  0
 24 37  1  0
 37 38  1  6
 37 39  1  0
 37 40  1  0
 40 41  1  0
 41 42  1  6
 41 43  1  0
 41 44  1  0
 44 45  2  0
 44 46  1  0
 46 47  1  1
 46 48  1  0
 48 49  1  1
 48 50  1  0
 50 51  1  6
 50 52  1  0
 50  3  1  0
 21 11  1  0
 32 26  1  0
M  END
$$$$
