
     RDKit          3D

 52 54  0  0  0  0  0  0  0  0999 V2000
  193.8530  154.2274  127.2396 C   0  0  0  0  0  0  0  0  0  0  0  0
  192.5944  154.8100  126.7025 C   0  0  0  0  0  0  0  0  0  0  0  0
  192.2264  156.1673  127.2610 C   0  0  1  0  0  0  0  0  0  0  0  0
  191.2565  156.7502  126.5489 O   0  0  0  0  0  0  0  0  0  0  0  0
  190.8308  157.2687  125.4142 C   0  0  0  0  0  0  0  0  0  0  0  0
  191.3103  157.3070  124.2445 O   0  0  0  0  0  0  0  0  0  0  0  0
  189.4899  157.9773  125.4875 C   0  0  2  0  0  0  0  0  0  0  0  0
  188.7426  157.5824  124.2419 C   0  0  0  0  0  0  0  0  0  0  0  0
  189.6815  159.5020  125.6120 C   0  0  1  0  0  0  0  0  0  0  0  0
  189.3638  160.0100  124.3639 O   0  0  0  0  0  0  0  0  0  0  0  0
  188.3259  160.9004  124.3233 C   0  0  1  0  0  0  0  0  0  0  0  0
  188.1965  161.7554  123.1157 C   0  0  0  0  0  0  0  0  0  0  0  0
  187.7646  161.1014  121.8580 C   0  0  1  0  0  0  0  0  0  0  0  0
  186.9024  162.1587  121.1178 C   0  0  0  0  0  0  0  0  0  0  0  0
  188.7668  160.7440  120.9764 O   0  0  0  0  0  0  0  0  0  0  0  0
  189.9234  160.3403  121.5742 C   0  0  0  0  0  0  0  0  0  0  0  0
  186.8139  159.9350  122.0584 C   0  0  1  0  0  0  0  0  0  0  0  0
  186.8251  159.1523  120.9024 O   0  0  0  0  0  0  0  0  0  0  0  0
  187.2300  159.1773  123.2732 C   0  0  2  0  0  0  0  0  0  0  0  0
  186.3197  158.0308  123.5633 C   0  0  0  0  0  0  0  0  0  0  0  0
  187.1569  160.0848  124.3425 O   0  0  0  0  0  0  0  0  0  0  0  0
  188.7829  160.0072  126.7045 C   0  0  2  0  0  0  0  0  0  0  0  0
  187.3819  159.9384  126.1120 C   0  0  0  0  0  0  0  0  0  0  0  0
  189.0247  161.3291  127.2919 C   0  0  1  0  0  0  0  0  0  0  0  0
  188.2896  161.4485  128.4742 O   0  0  0  0  0  0  0  0  0  0  0  0
  188.7104  160.7762  129.5733 C   0  0  2  0  0  0  0  0  0  0  0  0
  187.7667  159.7646  129.9369 O   0  0  0  0  0  0  0  0  0  0  0  0
  188.5338  158.7268  130.4626 C   0  0  2  0  0  0  0  0  0  0  0  0
  187.6783  157.6233  131.0290 C   0  0  0  0  0  0  0  0  0  0  0  0
  189.4234  159.2548  131.5743 C   0  0  0  0  0  0  0  0  0  0  0  0
  188.9741  160.6202  132.0215 C   0  0  1  0  0  0  0  0  0  0  0  0
  188.8876  161.5619  130.8403 C   0  0  1  0  0  0  0  0  0  0  0  0
  190.0054  162.3781  130.7708 O   0  0  0  0  0  0  0  0  0  0  0  0
  187.6613  160.4668  132.6383 N   0  0  0  0  0  0  0  0  0  0  0  0
  187.3861  161.5681  133.5445 C   0  0  0  0  0  0  0  0  0  0  0  0
  187.7073  159.2490  133.4591 C   0  0  0  0  0  0  0  0  0  0  0  0
  190.4409  161.6706  127.7068 C   0  0  2  0  0  0  0  0  0  0  0  0
  190.4339  163.2128  127.8766 C   0  0  0  0  0  0  0  0  0  0  0  0
  191.2932  161.4655  126.6736 O   0  0  0  0  0  0  0  0  0  0  0  0
  190.8345  161.1344  129.0269 C   0  0  0  0  0  0  0  0  0  0  0  0
  192.0639  160.3084  129.1439 C   0  0  2  0  0  0  0  0  0  0  0  0
  193.3468  161.0447  129.2323 C   0  0  0  0  0  0  0  0  0  0  0  0
  192.1081  159.4283  128.0836 F   0  0  0  0  0  0  0  0  0  0  0  0
  192.0120  159.3869  130.3452 C   0  0  0  0  0  0  0  0  0  0  0  0
  192.4092  159.8998  131.3995 O   0  0  0  0  0  0  0  0  0  0  0  0
  191.5245  157.9809  130.2718 C   0  0  2  0  0  0  0  0  0  0  0  0
  191.2291  157.5705  131.7117 C   0  0  0  0  0  0  0  0  0  0  0  0
  192.4650  157.0504  129.5968 C   0  0  1  0  0  0  0  0  0  0  0  0
  193.1490  156.3652  130.6007 O   0  0  0  0  0  0  0  0  0  0  0  0
  191.8182  156.0075  128.7040 C   0  0  1  0  0  0  0  0  0  0  0  0
  190.3200  155.9711  128.8859 C   0  0  0  0  0  0  0  0  0  0  0  0
  192.2652  154.7248  129.1044 O   0  0  0  0  0  0  0  0  0  0  0  0
  1  2  1  0
  3  2  1  6
  3  4  1  0
  4  5  1  0
  5  6  2  0
  5  7  1  0
  7  8  1  6
  7  9  1  0
  9 10  1  6
 11 10  1  6
 11 12  1  0
 12 13  1  0
 13 14  1  6
 13 15  1  0
 15 16  1  0
 13 17  1  0
 17 18  1  6
 17 19  1  0
 19 20  1  1
 19 21  1  0
  9 22  1  0
 22 23  1  6
 22 24  1  0
 24 25  1  1
 26 25  1  6
 26 27  1  0
 27 28  1  0
 28 29  1  1
 28 30  1  0
 30 31  1  0
 31 32  1  0
 32 33  1  6
 31 34  1  6
 34 35  1  0
 34 36  1  0
 24 37  1  0
 37 38  1  1
 37 39  1  0
 37 40  1  0
 40 41  1  0
 41 42  1  1
 41 43  1  0
 41 44  1  0
 44 45  2  0
 44 46  1  0
 46 47  1  1
 46 48  1  0
 48 49  1  1
 48 50  1  0
 50 51  1  6
 50 52  1  0
 50  3  1  0
 21 11  1  0
 32 26  1  0
M  END
$$$$
