
     RDKit          3D

 52 54  0  0  0  0  0  0  0  0999 V2000
  194.9979  158.2509  132.6433 C   0  0  0  0  0  0  0  0  0  0  0  0
  194.2905  159.2230  133.5189 C   0  0  0  0  0  0  0  0  0  0  0  0
  193.1531  159.9713  132.8587 C   0  0  1  0  0  0  0  0  0  0  0  0
  192.1360  159.1590  132.5535 O   0  0  0  0  0  0  0  0  0  0  0  0
  191.6599  158.1365  131.8714 C   0  0  0  0  0  0  0  0  0  0  0  0
  192.1967  157.2615  131.1327 O   0  0  0  0  0  0  0  0  0  0  0  0
  190.1577  157.9364  131.9663 C   0  0  2  0  0  0  0  0  0  0  0  0
  189.9438  156.4526  132.1017 C   0  0  0  0  0  0  0  0  0  0  0  0
  189.4462  158.5334  130.7358 C   0  0  1  0  0  0  0  0  0  0  0  0
  189.0802  157.4433  129.9648 O   0  0  0  0  0  0  0  0  0  0  0  0
  188.5055  156.3983  130.6350 C   0  0  1  0  0  0  0  0  0  0  0  0
  187.5692  155.5258  129.8811 C   0  0  0  0  0  0  0  0  0  0  0  0
  188.1481  154.6281  128.8539 C   0  0  1  0  0  0  0  0  0  0  0  0
  187.2767  153.3441  128.8893 C   0  0  0  0  0  0  0  0  0  0  0  0
  188.1053  155.0802  127.5490 O   0  0  0  0  0  0  0  0  0  0  0  0
  186.9088  155.6190  127.1800 C   0  0  0  0  0  0  0  0  0  0  0  0
  189.5435  154.1276  129.1808 C   0  0  1  0  0  0  0  0  0  0  0  0
  190.1387  153.6768  128.0011 O   0  0  0  0  0  0  0  0  0  0  0  0
  190.3105  155.2287  129.8307 C   0  0  2  0  0  0  0  0  0  0  0  0
  191.6875  154.8049  130.2198 C   0  0  0  0  0  0  0  0  0  0  0  0
  189.6017  155.5618  130.9965 O   0  0  0  0  0  0  0  0  0  0  0  0
  188.2744  159.3445  131.2104 C   0  0  2  0  0  0  0  0  0  0  0  0
  187.2513  158.3123  131.6644 C   0  0  0  0  0  0  0  0  0  0  0  0
  187.6513  160.3187  130.3083 C   0  0  1  0  0  0  0  0  0  0  0  0
  186.8155  161.1606  131.0468 O   0  0  0  0  0  0  0  0  0  0  0  0
  185.5780  160.7199  131.3805 C   0  0  2  0  0  0  0  0  0  0  0  0
  184.5822  161.3592  130.5770 O   0  0  0  0  0  0  0  0  0  0  0  0
  183.5858  160.4003  130.4053 C   0  0  2  0  0  0  0  0  0  0  0  0
  182.3827  160.9579  129.6897 C   0  0  0  0  0  0  0  0  0  0  0  0
  183.1332  159.8789  131.7579 C   0  0  0  0  0  0  0  0  0  0  0  0
  183.6107  160.7760  132.8685 C   0  0  1  0  0  0  0  0  0  0  0  0
  185.1089  160.9701  132.7846 C   0  0  1  0  0  0  0  0  0  0  0  0
  185.7689  160.1503  133.6862 O   0  0  0  0  0  0  0  0  0  0  0  0
  182.9294  162.0568  132.7178 N   0  0  0  0  0  0  0  0  0  0  0  0
  181.7859  161.9307  131.8310 C   0  0  0  0  0  0  0  0  0  0  0  0
  183.8707  162.9743  132.0614 C   0  0  0  0  0  0  0  0  0  0  0  0
  188.5598  161.2719  129.5596 C   0  0  2  0  0  0  0  0  0  0  0  0
  187.6696  161.8460  128.4260 C   0  0  0  0  0  0  0  0  0  0  0  0
  189.5179  160.5805  128.8962 O   0  0  0  0  0  0  0  0  0  0  0  0
  188.9933  162.4449  130.3477 C   0  0  0  0  0  0  0  0  0  0  0  0
  190.4427  162.7452  130.4755 C   0  0  2  0  0  0  0  0  0  0  0  0
  191.0684  163.4680  129.3432 C   0  0  0  0  0  0  0  0  0  0  0  0
  191.1205  161.5663  130.7025 F   0  0  0  0  0  0  0  0  0  0  0  0
  190.7437  163.5526  131.7214 C   0  0  0  0  0  0  0  0  0  0  0  0
  190.6326  164.7769  131.5756 O   0  0  0  0  0  0  0  0  0  0  0  0
  191.1398  162.9324  133.0170 C   0  0  2  0  0  0  0  0  0  0  0  0
  190.9227  164.0110  134.0746 C   0  0  0  0  0  0  0  0  0  0  0  0
  192.5238  162.3936  133.0300 C   0  0  1  0  0  0  0  0  0  0  0  0
  193.3227  163.3416  133.6689 O   0  0  0  0  0  0  0  0  0  0  0  0
  192.7035  161.0829  133.7734 C   0  0  1  0  0  0  0  0  0  0  0  0
  191.4729  160.7214  134.5697 C   0  0  0  0  0  0  0  0  0  0  0  0
  193.7276  161.2432  134.7383 O   0  0  0  0  0  0  0  0  0  0  0  0
  1  2  1  0
  3  2  1  1
  3  4  1  0
  4  5  1  0
  5  6  2  0
  5  7  1  0
  7  8  1  6
  7  9  1  0
  9 10  1  6
 11 10  1  6
 11 12  1  0
 12 13  1  0
 13 14  1  6
 13 15  1  0
 15 16  1  0
 13 17  1  0
 17 18  1  6
 17 19  1  0
 19 20  1  1
 19 21  1  0
  9 22  1  0
 22 23  1  6
 22 24  1  0
 24 25  1  1
 26 25  1  1
 26 27  1  0
 27 28  1  0
 28 29  1  1
 28 30  1  0
 30 31  1  0
 31 32  1  0
 32 33  1  1
 31 34  1  6
 34 35  1  0
 34 36  1  0
 24 37  1  0
 37 38  1  6
 37 39  1  0
 37 40  1  0
 40 41  1  0
 41 42  1  6
 41 43  1  0
 41 44  1  0
 44 45  2  0
 44 46  1  0
 46 47  1  1
 46 48  1  0
 48 49  1  1
 48 50  1  0
 50 51  1  1
 50 52  1  0
 50  3  1  0
 21 11  1  0
 32 26  1  0
M  END
$$$$
