
     RDKit          3D

 52 54  0  0  0  0  0  0  0  0999 V2000
  110.3081  166.1635  138.5629 C   0  0  0  0  0  0  0  0  0  0  0  0
  111.5503  166.9640  138.7313 C   0  0  0  0  0  0  0  0  0  0  0  0
  111.8868  167.3331  140.1597 C   0  0  1  0  0  0  0  0  0  0  0  0
  113.0679  167.9536  140.2464 O   0  0  0  0  0  0  0  0  0  0  0  0
  114.3779  167.9349  140.1014 C   0  0  0  0  0  0  0  0  0  0  0  0
  115.1810  167.1077  139.5814 O   0  0  0  0  0  0  0  0  0  0  0  0
  115.1102  169.1397  140.6650 C   0  0  2  0  0  0  0  0  0  0  0  0
  116.1688  169.4926  139.6546 C   0  0  0  0  0  0  0  0  0  0  0  0
  115.6932  168.8251  142.0571 C   0  0  1  0  0  0  0  0  0  0  0  0
  117.0538  168.6701  141.8533 O   0  0  0  0  0  0  0  0  0  0  0  0
  117.5830  167.4625  142.2185 C   0  0  1  0  0  0  0  0  0  0  0  0
  118.3101  166.6856  141.1823 C   0  0  0  0  0  0  0  0  0  0  0  0
  119.6288  167.1992  140.7425 C   0  0  1  0  0  0  0  0  0  0  0  0
  120.4846  165.9388  140.4453 C   0  0  0  0  0  0  0  0  0  0  0  0
  119.6397  167.9479  139.5813 O   0  0  0  0  0  0  0  0  0  0  0  0
  120.7773  167.8203  138.8411 C   0  0  0  0  0  0  0  0  0  0  0  0
  120.4092  167.9189  141.8276 C   0  0  1  0  0  0  0  0  0  0  0  0
  121.3850  168.7103  141.2189 O   0  0  0  0  0  0  0  0  0  0  0  0
  119.4589  168.7113  142.6595 C   0  0  2  0  0  0  0  0  0  0  0  0
  120.1448  169.4228  143.7778 C   0  0  0  0  0  0  0  0  0  0  0  0
  118.5564  167.7858  143.2085 O   0  0  0  0  0  0  0  0  0  0  0  0
  115.3575  169.9605  142.9816 C   0  0  2  0  0  0  0  0  0  0  0  0
  116.2657  171.0990  142.5374 C   0  0  0  0  0  0  0  0  0  0  0  0
  115.4513  169.7688  144.4326 C   0  0  1  0  0  0  0  0  0  0  0  0
  114.7999  170.8226  145.0789 O   0  0  0  0  0  0  0  0  0  0  0  0
  115.4809  171.5368  146.0080 C   0  0  2  0  0  0  0  0  0  0  0  0
  114.9805  171.2631  147.3198 O   0  0  0  0  0  0  0  0  0  0  0  0
  116.0911  171.3536  148.1565 C   0  0  2  0  0  0  0  0  0  0  0  0
  115.7147  171.2277  149.6101 C   0  0  0  0  0  0  0  0  0  0  0  0
  116.7778  172.6936  147.9591 C   0  0  0  0  0  0  0  0  0  0  0  0
  115.8869  173.6510  147.2134 C   0  0  1  0  0  0  0  0  0  0  0  0
  115.4174  173.0339  145.9142 C   0  0  1  0  0  0  0  0  0  0  0  0
  116.1628  173.5002  144.8430 O   0  0  0  0  0  0  0  0  0  0  0  0
  114.7447  173.9425  148.0724 N   0  0  0  0  0  0  0  0  0  0  0  0
  113.4970  173.7343  147.3584 C   0  0  0  0  0  0  0  0  0  0  0  0
  114.8051  175.3726  148.4041 C   0  0  0  0  0  0  0  0  0  0  0  0
  114.8148  168.5284  145.0250 C   0  0  2  0  0  0  0  0  0  0  0  0
  115.4358  168.4132  146.4422 C   0  0  0  0  0  0  0  0  0  0  0  0
  115.2652  167.4214  144.3865 O   0  0  0  0  0  0  0  0  0  0  0  0
  113.3572  168.6382  145.2452 C   0  0  0  0  0  0  0  0  0  0  0  0
  112.4510  167.6122  144.6679 C   0  0  2  0  0  0  0  0  0  0  0  0
  112.3153  166.3486  145.4302 C   0  0  0  0  0  0  0  0  0  0  0  0
  112.8601  167.3341  143.3811 F   0  0  0  0  0  0  0  0  0  0  0  0
  111.0481  168.1475  144.4675 C   0  0  0  0  0  0  0  0  0  0  0  0
  110.3175  168.0499  145.4621 O   0  0  0  0  0  0  0  0  0  0  0  0
  110.5800  168.7433  143.1846 C   0  0  2  0  0  0  0  0  0  0  0  0
  109.3157  169.5253  143.5295 C   0  0  0  0  0  0  0  0  0  0  0  0
  110.3568  167.7495  142.1035 C   0  0  1  0  0  0  0  0  0  0  0  0
  108.9850  167.5026  142.0557 O   0  0  0  0  0  0  0  0  0  0  0  0
  110.7801  168.1938  140.7156 C   0  0  1  0  0  0  0  0  0  0  0  0
  111.1120  169.6661  140.6794 C   0  0  0  0  0  0  0  0  0  0  0  0
  109.6808  168.0463  139.8351 O   0  0  0  0  0  0  0  0  0  0  0  0
  1  2  1  0
  3  2  1  6
  3  4  1  0
  4  5  1  0
  5  6  2  0
  5  7  1  0
  7  8  1  6
  7  9  1  0
  9 10  1  6
 11 10  1  6
 11 12  1  0
 12 13  1  0
 13 14  1  6
 13 15  1  0
 15 16  1  0
 13 17  1  0
 17 18  1  6
 17 19  1  0
 19 20  1  1
 19 21  1  0
  9 22  1  0
 22 23  1  6
 22 24  1  0
 24 25  1  1
 26 25  1  6
 26 27  1  0
 27 28  1  0
 28 29  1  1
 28 30  1  0
 30 31  1  0
 31 32  1  0
 32 33  1  6
 31 34  1  1
 34 35  1  0
 34 36  1  0
 24 37  1  0
 37 38  1  1
 37 39  1  0
 37 40  1  0
 40 41  1  0
 41 42  1  1
 41 43  1  0
 41 44  1  0
 44 45  2  0
 44 46  1  0
 46 47  1  1
 46 48  1  0
 48 49  1  6
 48 50  1  0
 50 51  1  1
 50 52  1  0
 50  3  1  0
 21 11  1  0
 32 26  1  0
M  END
$$$$
