
     RDKit          3D

 52 54  0  0  0  0  0  0  0  0999 V2000
  165.5741  154.2748  129.3582 C   0  0  0  0  0  0  0  0  0  0  0  0
  165.5180  153.3830  128.1692 C   0  0  0  0  0  0  0  0  0  0  0  0
  165.8731  151.9364  128.4352 C   0  0  1  0  0  0  0  0  0  0  0  0
  165.5833  151.1544  127.3902 O   0  0  0  0  0  0  0  0  0  0  0  0
  164.6924  150.6288  126.5731 C   0  0  0  0  0  0  0  0  0  0  0  0
  163.4569  150.8298  126.3919 O   0  0  0  0  0  0  0  0  0  0  0  0
  165.2218  149.5531  125.6413 C   0  0  2  0  0  0  0  0  0  0  0  0
  164.5831  149.8116  124.3030 C   0  0  0  0  0  0  0  0  0  0  0  0
  164.9085  148.1477  126.1922 C   0  0  1  0  0  0  0  0  0  0  0  0
  163.8725  147.6732  125.4058 O   0  0  0  0  0  0  0  0  0  0  0  0
  163.0293  146.7745  125.9999 C   0  0  1  0  0  0  0  0  0  0  0  0
  161.6129  147.1786  126.1907 C   0  0  0  0  0  0  0  0  0  0  0  0
  160.7599  147.2725  124.9824 C   0  0  1  0  0  0  0  0  0  0  0  0
  159.3457  146.8249  125.4394 C   0  0  0  0  0  0  0  0  0  0  0  0
  160.6021  148.5330  124.4389 O   0  0  0  0  0  0  0  0  0  0  0  0
  159.3043  148.9043  124.2487 C   0  0  0  0  0  0  0  0  0  0  0  0
  161.1180  146.2810  123.8901 C   0  0  1  0  0  0  0  0  0  0  0  0
  160.5729  146.7333  122.6870 O   0  0  0  0  0  0  0  0  0  0  0  0
  162.6012  146.1392  123.8352 C   0  0  2  0  0  0  0  0  0  0  0  0
  163.0364  145.1488  122.8071 C   0  0  0  0  0  0  0  0  0  0  0  0
  162.9948  145.6702  125.0991 O   0  0  0  0  0  0  0  0  0  0  0  0
  166.1534  147.3121  126.1008 C   0  0  2  0  0  0  0  0  0  0  0  0
  166.3076  147.0137  124.6157 C   0  0  0  0  0  0  0  0  0  0  0  0
  166.2588  146.0764  126.8836 C   0  0  1  0  0  0  0  0  0  0  0  0
  167.5891  145.6488  126.8914 O   0  0  0  0  0  0  0  0  0  0  0  0
  167.8690  144.3849  126.4895 C   0  0  2  0  0  0  0  0  0  0  0  0
  168.1859  143.5579  127.6128 O   0  0  0  0  0  0  0  0  0  0  0  0
  167.7058  142.2935  127.2776 C   0  0  2  0  0  0  0  0  0  0  0  0
  168.0828  141.2561  128.3034 C   0  0  0  0  0  0  0  0  0  0  0  0
  168.2760  141.8638  125.9373 C   0  0  0  0  0  0  0  0  0  0  0  0
  169.4392  142.7341  125.5426 C   0  0  1  0  0  0  0  0  0  0  0  0
  169.0416  144.1937  125.5717 C   0  0  1  0  0  0  0  0  0  0  0  0
  168.7605  144.6591  124.2970 O   0  0  0  0  0  0  0  0  0  0  0  0
  170.5126  142.4870  126.4987 N   0  0  0  0  0  0  0  0  0  0  0  0
  170.6491  143.6022  127.4194 C   0  0  0  0  0  0  0  0  0  0  0  0
  171.7660  142.4169  125.7353 C   0  0  0  0  0  0  0  0  0  0  0  0
  165.8857  146.1341  128.3506 C   0  0  2  0  0  0  0  0  0  0  0  0
  165.6994  144.6497  128.7619 C   0  0  0  0  0  0  0  0  0  0  0  0
  164.6479  146.6655  128.4976 O   0  0  0  0  0  0  0  0  0  0  0  0
  166.9546  146.6519  129.2306 C   0  0  0  0  0  0  0  0  0  0  0  0
  166.6658  147.7907  130.1399 C   0  0  2  0  0  0  0  0  0  0  0  0
  165.9879  147.4602  131.4155 C   0  0  0  0  0  0  0  0  0  0  0  0
  165.9255  148.7290  129.4526 F   0  0  0  0  0  0  0  0  0  0  0  0
  167.9225  148.5539  130.5047 C   0  0  0  0  0  0  0  0  0  0  0  0
  168.5332  148.0957  131.4792 O   0  0  0  0  0  0  0  0  0  0  0  0
  168.3908  149.7550  129.7578 C   0  0  2  0  0  0  0  0  0  0  0  0
  169.8542  149.9402  130.1493 C   0  0  0  0  0  0  0  0  0  0  0  0
  167.5779  150.9735  130.0035 C   0  0  1  0  0  0  0  0  0  0  0  0
  168.2731  151.7447  130.9347 O   0  0  0  0  0  0  0  0  0  0  0  0
  167.3368  151.8494  128.7879 C   0  0  1  0  0  0  0  0  0  0  0  0
  168.1945  151.4279  127.6192 C   0  0  0  0  0  0  0  0  0  0  0  0
  167.7530  153.1694  129.0879 O   0  0  0  0  0  0  0  0  0  0  0  0
  1  2  1  0
  3  2  1  6
  3  4  1  0
  4  5  1  0
  5  6  2  0
  5  7  1  0
  7  8  1  6
  7  9  1  0
  9 10  1  6
 11 10  1  6
 11 12  1  0
 12 13  1  0
 13 14  1  1
 13 15  1  0
 15 16  1  0
 13 17  1  0
 17 18  1  6
 17 19  1  0
 19 20  1  6
 19 21  1  0
  9 22  1  0
 22 23  1  6
 22 24  1  0
 24 25  1  1
 26 25  1  1
 26 27  1  0
 27 28  1  0
 28 29  1  1
 28 30  1  0
 30 31  1  0
 31 32  1  0
 32 33  1  6
 31 34  1  1
 34 35  1  0
 34 36  1  0
 24 37  1  0
 37 38  1  1
 37 39  1  0
 37 40  1  0
 40 41  1  0
 41 42  1  1
 41 43  1  0
 41 44  1  0
 44 45  2  0
 44 46  1  0
 46 47  1  1
 46 48  1  0
 48 49  1  1
 48 50  1  0
 50 51  1  6
 50 52  1  0
 50  3  1  0
 21 11  1  0
 32 26  1  0
M  END
$$$$
