
     RDKit          3D

 52 54  0  0  0  0  0  0  0  0999 V2000
  147.3511  165.1959  135.6053 C   0  0  0  0  0  0  0  0  0  0  0  0
  148.4097  164.8381  134.6238 C   0  0  0  0  0  0  0  0  0  0  0  0
  148.2153  165.4066  133.2351 C   0  0  1  0  0  0  0  0  0  0  0  0
  148.0519  166.7333  133.2607 O   0  0  0  0  0  0  0  0  0  0  0  0
  147.3513  167.7880  133.6272 C   0  0  0  0  0  0  0  0  0  0  0  0
  146.3553  167.9448  134.3908 O   0  0  0  0  0  0  0  0  0  0  0  0
  147.8030  169.1075  133.0268 C   0  0  2  0  0  0  0  0  0  0  0  0
  147.7274  170.1181  134.1399 C   0  0  0  0  0  0  0  0  0  0  0  0
  146.9287  169.4862  131.8147 C   0  0  1  0  0  0  0  0  0  0  0  0
  146.1028  170.5012  132.2670 O   0  0  0  0  0  0  0  0  0  0  0  0
  145.2320  171.0220  131.3494 C   0  0  1  0  0  0  0  0  0  0  0  0
  143.7787  170.9024  131.6313 C   0  0  0  0  0  0  0  0  0  0  0  0
  143.2230  171.7368  132.7227 C   0  0  1  0  0  0  0  0  0  0  0  0
  141.7891  172.1150  132.2642 C   0  0  0  0  0  0  0  0  0  0  0  0
  143.0789  171.1230  133.9521 O   0  0  0  0  0  0  0  0  0  0  0  0
  141.8249  171.2090  134.4797 C   0  0  0  0  0  0  0  0  0  0  0  0
  143.9138  173.0778  132.8935 C   0  0  1  0  0  0  0  0  0  0  0  0
  143.6219  173.5658  134.1685 O   0  0  0  0  0  0  0  0  0  0  0  0
  145.3761  172.8992  132.6640 C   0  0  2  0  0  0  0  0  0  0  0  0
  146.1267  174.1841  132.7768 C   0  0  0  0  0  0  0  0  0  0  0  0
  145.5088  172.4204  131.3504 O   0  0  0  0  0  0  0  0  0  0  0  0
  147.8306  169.9115  130.6914 C   0  0  2  0  0  0  0  0  0  0  0  0
  148.3502  171.2793  131.1127 C   0  0  0  0  0  0  0  0  0  0  0  0
  147.3107  169.9626  129.3210 C   0  0  1  0  0  0  0  0  0  0  0  0
  148.3796  170.0668  128.4270 O   0  0  0  0  0  0  0  0  0  0  0  0
  148.3029  170.9748  127.4235 C   0  0  2  0  0  0  0  0  0  0  0  0
  147.7650  170.3749  126.2417 O   0  0  0  0  0  0  0  0  0  0  0  0
  147.0369  171.3882  125.6213 C   0  0  2  0  0  0  0  0  0  0  0  0
  146.5105  170.9622  124.2752 C   0  0  0  0  0  0  0  0  0  0  0  0
  147.9185  172.6083  125.4209 C   0  0  0  0  0  0  0  0  0  0  0  0
  149.3710  172.2603  125.6087 C   0  0  1  0  0  0  0  0  0  0  0  0
  149.5862  171.5933  126.9496 C   0  0  1  0  0  0  0  0  0  0  0  0
  150.0816  172.4930  127.8799 O   0  0  0  0  0  0  0  0  0  0  0  0
  149.7445  171.3518  124.5304 N   0  0  0  0  0  0  0  0  0  0  0  0
  150.7289  171.9664  123.6569 C   0  0  0  0  0  0  0  0  0  0  0  0
  148.5422  171.1277  123.7160 C   0  0  0  0  0  0  0  0  0  0  0  0
  146.5280  168.7681  128.8161 C   0  0  2  0  0  0  0  0  0  0  0  0
  145.7888  169.2930  127.5570 C   0  0  0  0  0  0  0  0  0  0  0  0
  145.5244  168.4693  129.6761 O   0  0  0  0  0  0  0  0  0  0  0  0
  147.3668  167.6487  128.3380 C   0  0  0  0  0  0  0  0  0  0  0  0
  147.1579  166.2878  128.8961 C   0  0  2  0  0  0  0  0  0  0  0  0
  146.0457  165.5003  128.3142 C   0  0  0  0  0  0  0  0  0  0  0  0
  146.9872  166.3905  130.2604 F   0  0  0  0  0  0  0  0  0  0  0  0
  148.4017  165.4317  128.7754 C   0  0  0  0  0  0  0  0  0  0  0  0
  148.5076  164.8345  127.6961 O   0  0  0  0  0  0  0  0  0  0  0  0
  149.4169  165.3137  129.8596 C   0  0  2  0  0  0  0  0  0  0  0  0
  150.6666  164.7433  129.1948 C   0  0  0  0  0  0  0  0  0  0  0  0
  148.9691  164.5021  131.0200 C   0  0  1  0  0  0  0  0  0  0  0  0
  149.5305  163.2342  130.8697 O   0  0  0  0  0  0  0  0  0  0  0  0
  149.3967  165.0223  132.3800 C   0  0  1  0  0  0  0  0  0  0  0  0
  150.4134  166.1315  132.2572 C   0  0  0  0  0  0  0  0  0  0  0  0
  150.0693  163.9865  133.0730 O   0  0  0  0  0  0  0  0  0  0  0  0
  1  2  1  0
  3  2  1  1
  3  4  1  0
  4  5  1  0
  5  6  2  0
  5  7  1  0
  7  8  1  1
  7  9  1  0
  9 10  1  1
 11 10  1  1
 11 12  1  0
 12 13  1  0
 13 14  1  6
 13 15  1  0
 15 16  1  0
 13 17  1  0
 17 18  1  1
 17 19  1  0
 19 20  1  6
 19 21  1  0
  9 22  1  0
 22 23  1  1
 22 24  1  0
 24 25  1  6
 26 25  1  1
 26 27  1  0
 27 28  1  0
 28 29  1  6
 28 30  1  0
 30 31  1  0
 31 32  1  0
 32 33  1  1
 31 34  1  6
 34 35  1  0
 34 36  1  0
 24 37  1  0
 37 38  1  6
 37 39  1  0
 37 40  1  0
 40 41  1  0
 41 42  1  6
 41 43  1  0
 41 44  1  0
 44 45  2  0
 44 46  1  0
 46 47  1  6
 46 48  1  0
 48 49  1  6
 48 50  1  0
 50 51  1  6
 50 52  1  0
 50  3  1  0
 21 11  1  0
 32 26  1  0
M  END
$$$$
