
     RDKit          3D

 52 54  0  0  0  0  0  0  0  0999 V2000
  120.1992  169.3424  149.7352 C   0  0  0  0  0  0  0  0  0  0  0  0
  119.2114  170.3713  149.3138 C   0  0  0  0  0  0  0  0  0  0  0  0
  118.7794  170.2906  147.8658 C   0  0  1  0  0  0  0  0  0  0  0  0
  118.3173  169.0756  147.5532 O   0  0  0  0  0  0  0  0  0  0  0  0
  118.5222  167.7816  147.4076 C   0  0  0  0  0  0  0  0  0  0  0  0
  119.4876  167.0183  147.6993 O   0  0  0  0  0  0  0  0  0  0  0  0
  117.3855  167.0141  146.7563 C   0  0  2  0  0  0  0  0  0  0  0  0
  117.2577  165.7273  147.5269 C   0  0  0  0  0  0  0  0  0  0  0  0
  117.6646  166.7882  145.2570 C   0  0  1  0  0  0  0  0  0  0  0  0
  118.0156  165.4532  145.1511 O   0  0  0  0  0  0  0  0  0  0  0  0
  119.0781  165.1733  144.3359 C   0  0  1  0  0  0  0  0  0  0  0  0
  120.1994  164.3858  144.9090 C   0  0  0  0  0  0  0  0  0  0  0  0
  119.9557  162.9505  145.1858 C   0  0  1  0  0  0  0  0  0  0  0  0
  121.3055  162.2397  144.8996 C   0  0  0  0  0  0  0  0  0  0  0  0
  119.6230  162.6241  146.4865 O   0  0  0  0  0  0  0  0  0  0  0  0
  120.6897  162.5078  147.3271 C   0  0  0  0  0  0  0  0  0  0  0  0
  118.9865  162.2876  144.2237 C   0  0  1  0  0  0  0  0  0  0  0  0
  118.5088  161.1165  144.8148 O   0  0  0  0  0  0  0  0  0  0  0  0
  117.8993  163.2530  143.8933 C   0  0  2  0  0  0  0  0  0  0  0  0
  116.9201  162.6892  142.9184 C   0  0  0  0  0  0  0  0  0  0  0  0
  118.5283  164.3606  143.3018 O   0  0  0  0  0  0  0  0  0  0  0  0
  116.4255  167.1389  144.4838 C   0  0  2  0  0  0  0  0  0  0  0  0
  115.4570  166.0002  144.7732 C   0  0  0  0  0  0  0  0  0  0  0  0
  116.5133  167.3802  143.0399 C   0  0  1  0  0  0  0  0  0  0  0  0
  115.3343  167.9898  142.6028 O   0  0  0  0  0  0  0  0  0  0  0  0
  114.5147  167.3010  141.7716 C   0  0  2  0  0  0  0  0  0  0  0  0
  114.5196  167.8817  140.4644 O   0  0  0  0  0  0  0  0  0  0  0  0
  114.3574  166.8079  139.5913 C   0  0  2  0  0  0  0  0  0  0  0  0
  114.2003  167.2605  138.1627 C   0  0  0  0  0  0  0  0  0  0  0  0
  113.1217  166.0129  139.9751 C   0  0  0  0  0  0  0  0  0  0  0  0
  112.2533  166.7926  140.9260 C   0  0  1  0  0  0  0  0  0  0  0  0
  113.0566  167.2462  142.1253 C   0  0  1  0  0  0  0  0  0  0  0  0
  112.8368  166.4181  143.2145 O   0  0  0  0  0  0  0  0  0  0  0  0
  111.7399  167.9484  140.1995 N   0  0  0  0  0  0  0  0  0  0  0  0
  110.8339  168.7197  141.0327 C   0  0  0  0  0  0  0  0  0  0  0  0
  110.9436  167.4360  139.0760 C   0  0  0  0  0  0  0  0  0  0  0  0
  117.6070  168.3023  142.5418 C   0  0  2  0  0  0  0  0  0  0  0  0
  117.6923  168.0156  141.0193 C   0  0  0  0  0  0  0  0  0  0  0  0
  118.8111  167.8964  143.0126 O   0  0  0  0  0  0  0  0  0  0  0  0
  117.2865  169.7412  142.6507 C   0  0  0  0  0  0  0  0  0  0  0  0
  118.2245  170.6477  143.3619 C   0  0  2  0  0  0  0  0  0  0  0  0
  119.3947  171.1245  142.5879 C   0  0  0  0  0  0  0  0  0  0  0  0
  118.6551  170.0238  144.5135 F   0  0  0  0  0  0  0  0  0  0  0  0
  117.5240  171.8830  143.8893 C   0  0  0  0  0  0  0  0  0  0  0  0
  117.4446  172.8118  143.0747 O   0  0  0  0  0  0  0  0  0  0  0  0
  116.9738  171.9792  145.2706 C   0  0  2  0  0  0  0  0  0  0  0  0
  116.0051  173.1582  145.2481 C   0  0  0  0  0  0  0  0  0  0  0  0
  118.0107  172.1151  146.3253 C   0  0  1  0  0  0  0  0  0  0  0  0
  118.0752  173.4676  146.6596 O   0  0  0  0  0  0  0  0  0  0  0  0
  117.7376  171.3499  147.6070 C   0  0  1  0  0  0  0  0  0  0  0  0
  116.3302  170.8046  147.6406 C   0  0  0  0  0  0  0  0  0  0  0  0
  117.8056  172.2501  148.6982 O   0  0  0  0  0  0  0  0  0  0  0  0
  1  2  1  0
  3  2  1  1
  3  4  1  0
  4  5  1  0
  5  6  2  0
  5  7  1  0
  7  8  1  1
  7  9  1  0
  9 10  1  1
 11 10  1  1
 11 12  1  0
 12 13  1  0
 13 14  1  6
 13 15  1  0
 15 16  1  0
 13 17  1  0
 17 18  1  1
 17 19  1  0
 19 20  1  6
 19 21  1  0
  9 22  1  0
 22 23  1  6
 22 24  1  0
 24 25  1  1
 26 25  1  1
 26 27  1  0
 27 28  1  0
 28 29  1  6
 28 30  1  0
 30 31  1  0
 31 32  1  0
 32 33  1  1
 31 34  1  6
 34 35  1  0
 34 36  1  0
 24 37  1  0
 37 38  1  6
 37 39  1  0
 37 40  1  0
 40 41  1  0
 41 42  1  6
 41 43  1  0
 41 44  1  0
 44 45  2  0
 44 46  1  0
 46 47  1  6
 46 48  1  0
 48 49  1  1
 48 50  1  0
 50 51  1  6
 50 52  1  0
 50  3  1  0
 21 11  1  0
 32 26  1  0
M  END
$$$$
