
     RDKit          3D

 52 54  0  0  0  0  0  0  0  0999 V2000
  128.0521  161.6277  147.7032 C   0  0  0  0  0  0  0  0  0  0  0  0
  127.3332  160.8535  146.6564 C   0  0  0  0  0  0  0  0  0  0  0  0
  125.8252  160.9733  146.6922 C   0  0  1  0  0  0  0  0  0  0  0  0
  125.4303  162.2492  146.7514 O   0  0  0  0  0  0  0  0  0  0  0  0
  125.3866  163.3996  147.3937 C   0  0  0  0  0  0  0  0  0  0  0  0
  125.9615  163.8351  148.4326 O   0  0  0  0  0  0  0  0  0  0  0  0
  124.4631  164.4438  146.7918 C   0  0  2  0  0  0  0  0  0  0  0  0
  125.2034  165.7517  146.8768 C   0  0  0  0  0  0  0  0  0  0  0  0
  123.1112  164.4724  147.5324 C   0  0  1  0  0  0  0  0  0  0  0  0
  123.1481  165.6179  148.3092 O   0  0  0  0  0  0  0  0  0  0  0  0
  122.0102  166.3774  148.3153 C   0  0  1  0  0  0  0  0  0  0  0  0
  121.6532  167.0760  149.5765 C   0  0  0  0  0  0  0  0  0  0  0  0
  122.4955  168.2254  149.9834 C   0  0  1  0  0  0  0  0  0  0  0  0
  121.5264  169.2252  150.6693 C   0  0  0  0  0  0  0  0  0  0  0  0
  123.4872  167.9624  150.9089 O   0  0  0  0  0  0  0  0  0  0  0  0
  123.6279  166.6432  151.2221 C   0  0  0  0  0  0  0  0  0  0  0  0
  123.0702  169.0169  148.8225 C   0  0  1  0  0  0  0  0  0  0  0  0
  124.1529  169.7640  149.2903 O   0  0  0  0  0  0  0  0  0  0  0  0
  123.4484  168.0705  147.7343 C   0  0  2  0  0  0  0  0  0  0  0  0
  123.9896  168.7754  146.5353 C   0  0  0  0  0  0  0  0  0  0  0  0
  122.2661  167.4087  147.3651 O   0  0  0  0  0  0  0  0  0  0  0  0
  122.0092  164.4830  146.5117 C   0  0  2  0  0  0  0  0  0  0  0  0
  122.0461  165.8860  145.9212 C   0  0  0  0  0  0  0  0  0  0  0  0
  120.6427  164.1337  146.9134 C   0  0  1  0  0  0  0  0  0  0  0  0
  119.8724  163.9019  145.7708 O   0  0  0  0  0  0  0  0  0  0  0  0
  119.0287  164.8740  145.3463 C   0  0  2  0  0  0  0  0  0  0  0  0
  117.7148  164.6654  145.8719 O   0  0  0  0  0  0  0  0  0  0  0  0
  117.1959  165.9440  146.0660 C   0  0  2  0  0  0  0  0  0  0  0  0
  115.7506  165.9083  146.4908 C   0  0  0  0  0  0  0  0  0  0  0  0
  117.2914  166.7407  144.7768 C   0  0  0  0  0  0  0  0  0  0  0  0
  117.5707  165.8380  143.6049 C   0  0  1  0  0  0  0  0  0  0  0  0
  118.7994  164.9949  143.8675 C   0  0  1  0  0  0  0  0  0  0  0  0
  119.9111  165.5225  143.2302 O   0  0  0  0  0  0  0  0  0  0  0  0
  116.4033  164.9819  143.4262 N   0  0  0  0  0  0  0  0  0  0  0  0
  116.6398  163.9997  142.3826 C   0  0  0  0  0  0  0  0  0  0  0  0
  115.3054  165.8379  142.9564 C   0  0  0  0  0  0  0  0  0  0  0  0
  120.4475  162.8827  147.7449 C   0  0  2  0  0  0  0  0  0  0  0  0
  119.0204  163.0288  148.3359 C   0  0  0  0  0  0  0  0  0  0  0  0
  121.2513  162.9159  148.8353 O   0  0  0  0  0  0  0  0  0  0  0  0
  120.4192  161.6294  146.9615 C   0  0  0  0  0  0  0  0  0  0  0  0
  121.3398  160.5205  147.3221 C   0  0  2  0  0  0  0  0  0  0  0  0
  120.9146  159.6488  148.4424 C   0  0  0  0  0  0  0  0  0  0  0  0
  122.5839  161.0489  147.5938 F   0  0  0  0  0  0  0  0  0  0  0  0
  121.6112  159.6073  146.1442 C   0  0  0  0  0  0  0  0  0  0  0  0
  120.7805  158.7009  145.9990 O   0  0  0  0  0  0  0  0  0  0  0  0
  122.7770  159.7796  145.2326 C   0  0  2  0  0  0  0  0  0  0  0  0
  122.4470  158.9690  143.9824 C   0  0  0  0  0  0  0  0  0  0  0  0
  124.0774  159.3907  145.8357 C   0  0  1  0  0  0  0  0  0  0  0  0
  124.3766  158.1119  145.3663 O   0  0  0  0  0  0  0  0  0  0  0  0
  125.2514  160.2840  145.4797 C   0  0  1  0  0  0  0  0  0  0  0  0
  124.9016  161.2479  144.3717 C   0  0  0  0  0  0  0  0  0  0  0  0
  126.2904  159.4810  144.9495 O   0  0  0  0  0  0  0  0  0  0  0  0
  1  2  1  0
  3  2  1  6
  3  4  1  0
  4  5  1  0
  5  6  2  0
  5  7  1  0
  7  8  1  1
  7  9  1  0
  9 10  1  6
 11 10  1  1
 11 12  1  0
 12 13  1  0
 13 14  1  1
 13 15  1  0
 15 16  1  0
 13 17  1  0
 17 18  1  1
 17 19  1  0
 19 20  1  6
 19 21  1  0
  9 22  1  0
 22 23  1  1
 22 24  1  0
 24 25  1  6
 26 25  1  6
 26 27  1  0
 27 28  1  0
 28 29  1  6
 28 30  1  0
 30 31  1  0
 31 32  1  0
 32 33  1  6
 31 34  1  1
 34 35  1  0
 34 36  1  0
 24 37  1  0
 37 38  1  1
 37 39  1  0
 37 40  1  0
 40 41  1  0
 41 42  1  1
 41 43  1  0
 41 44  1  0
 44 45  2  0
 44 46  1  0
 46 47  1  6
 46 48  1  0
 48 49  1  6
 48 50  1  0
 50 51  1  6
 50 52  1  0
 50  3  1  0
 21 11  1  0
 32 26  1  0
M  END
$$$$
