
     RDKit          3D

 52 54  0  0  0  0  0  0  0  0999 V2000
  143.7586  171.4939  136.1992 C   0  0  0  0  0  0  0  0  0  0  0  0
  144.8572  170.5269  136.4638 C   0  0  0  0  0  0  0  0  0  0  0  0
  145.3610  169.7801  135.2480 C   0  0  1  0  0  0  0  0  0  0  0  0
  145.7953  170.6146  134.2981 O   0  0  0  0  0  0  0  0  0  0  0  0
  145.5524  171.5706  133.4237 C   0  0  0  0  0  0  0  0  0  0  0  0
  144.5467  172.3031  133.1966 O   0  0  0  0  0  0  0  0  0  0  0  0
  146.6936  171.8851  132.4727 C   0  0  2  0  0  0  0  0  0  0  0  0
  146.7353  173.3852  132.3553 C   0  0  0  0  0  0  0  0  0  0  0  0
  146.4852  171.1844  131.1154 C   0  0  1  0  0  0  0  0  0  0  0  0
  146.0930  172.1882  130.2462 O   0  0  0  0  0  0  0  0  0  0  0  0
  144.9287  171.9703  129.5617 C   0  0  1  0  0  0  0  0  0  0  0  0
  143.9696  173.0992  129.4539 C   0  0  0  0  0  0  0  0  0  0  0  0
  144.3442  174.2334  128.5767 C   0  0  1  0  0  0  0  0  0  0  0  0
  143.0120  174.7337  127.9569 C   0  0  0  0  0  0  0  0  0  0  0  0
  144.9090  175.3302  129.1990 O   0  0  0  0  0  0  0  0  0  0  0  0
  144.9630  176.4501  128.4237 C   0  0  0  0  0  0  0  0  0  0  0  0
  145.1782  173.8381  127.3714 C   0  0  1  0  0  0  0  0  0  0  0  0
  145.8193  174.9788  126.8846 O   0  0  0  0  0  0  0  0  0  0  0  0
  146.1333  172.7672  127.7765 C   0  0  2  0  0  0  0  0  0  0  0  0
  146.9689  172.2938  126.6342 C   0  0  0  0  0  0  0  0  0  0  0  0
  145.3472  171.6943  128.2272 O   0  0  0  0  0  0  0  0  0  0  0  0
  147.7746  170.5250  130.7169 C   0  0  2  0  0  0  0  0  0  0  0  0
  148.6857  171.6759  130.3122 C   0  0  0  0  0  0  0  0  0  0  0  0
  147.7708  169.4878  129.6800 C   0  0  1  0  0  0  0  0  0  0  0  0
  148.9919  168.8088  129.7041 O   0  0  0  0  0  0  0  0  0  0  0  0
  149.9335  169.1296  128.7835 C   0  0  2  0  0  0  0  0  0  0  0  0
  149.9036  168.2075  127.6903 O   0  0  0  0  0  0  0  0  0  0  0  0
  150.2498  168.9623  126.5713 C   0  0  2  0  0  0  0  0  0  0  0  0
  150.4030  168.1081  125.3395 C   0  0  0  0  0  0  0  0  0  0  0  0
  151.5662  169.6777  126.8187 C   0  0  0  0  0  0  0  0  0  0  0  0
  152.2772  169.1001  128.0133 C   0  0  1  0  0  0  0  0  0  0  0  0
  151.3687  169.1054  129.2232 C   0  0  1  0  0  0  0  0  0  0  0  0
  151.6549  170.1750  130.0565 O   0  0  0  0  0  0  0  0  0  0  0  0
  152.6560  167.7325  127.6759 N   0  0  0  0  0  0  0  0  0  0  0  0
  152.1872  166.8034  128.6892 C   0  0  0  0  0  0  0  0  0  0  0  0
  154.1239  167.6712  127.6969 C   0  0  0  0  0  0  0  0  0  0  0  0
  146.7380  168.3849  129.7863 C   0  0  2  0  0  0  0  0  0  0  0  0
  146.7221  167.7318  128.3790 C   0  0  0  0  0  0  0  0  0  0  0  0
  145.4974  168.9162  129.9074 O   0  0  0  0  0  0  0  0  0  0  0  0
  147.1032  167.2966  130.7177 C   0  0  0  0  0  0  0  0  0  0  0  0
  146.1623  166.9155  131.8023 C   0  0  2  0  0  0  0  0  0  0  0  0
  145.0517  166.0104  131.4238 C   0  0  0  0  0  0  0  0  0  0  0  0
  145.6503  168.0640  132.3677 F   0  0  0  0  0  0  0  0  0  0  0  0
  146.8777  166.2576  132.9642 C   0  0  0  0  0  0  0  0  0  0  0  0
  147.0324  165.0354  132.8425 O   0  0  0  0  0  0  0  0  0  0  0  0
  147.3582  167.0114  134.1562 C   0  0  2  0  0  0  0  0  0  0  0  0
  148.3680  166.0967  134.8438 C   0  0  0  0  0  0  0  0  0  0  0  0
  146.2732  167.4500  135.0707 C   0  0  1  0  0  0  0  0  0  0  0  0
  146.2394  166.5397  136.1268 O   0  0  0  0  0  0  0  0  0  0  0  0
  146.4518  168.8304  135.6754 C   0  0  1  0  0  0  0  0  0  0  0  0
  147.8353  169.3766  135.4168 C   0  0  0  0  0  0  0  0  0  0  0  0
  146.3590  168.7258  137.0846 O   0  0  0  0  0  0  0  0  0  0  0  0
  1  2  1  0
  3  2  1  1
  3  4  1  0
  4  5  1  0
  5  6  2  0
  5  7  1  0
  7  8  1  6
  7  9  1  0
  9 10  1  6
 11 10  1  1
 11 12  1  0
 12 13  1  0
 13 14  1  6
 13 15  1  0
 15 16  1  0
 13 17  1  0
 17 18  1  1
 17 19  1  0
 19 20  1  6
 19 21  1  0
  9 22  1  0
 22 23  1  6
 22 24  1  0
 24 25  1  1
 26 25  1  1
 26 27  1  0
 27 28  1  0
 28 29  1  6
 28 30  1  0
 30 31  1  0
 31 32  1  0
 32 33  1  1
 31 34  1  6
 34 35  1  0
 34 36  1  0
 24 37  1  0
 37 38  1  6
 37 39  1  0
 37 40  1  0
 40 41  1  0
 41 42  1  6
 41 43  1  0
 41 44  1  0
 44 45  2  0
 44 46  1  0
 46 47  1  1
 46 48  1  0
 48 49  1  1
 48 50  1  0
 50 51  1  1
 50 52  1  0
 50  3  1  0
 21 11  1  0
 32 26  1  0
M  END
$$$$
