
     RDKit          3D

 52 54  0  0  0  0  0  0  0  0999 V2000
  191.9989  162.2905  123.9555 C   0  0  0  0  0  0  0  0  0  0  0  0
  190.6219  161.7446  124.0901 C   0  0  0  0  0  0  0  0  0  0  0  0
  190.5327  160.3837  124.7455 C   0  0  1  0  0  0  0  0  0  0  0  0
  189.8381  160.4275  125.8870 O   0  0  0  0  0  0  0  0  0  0  0  0
  189.7046  160.8650  127.1233 C   0  0  0  0  0  0  0  0  0  0  0  0
  190.3258  161.7264  127.8100 O   0  0  0  0  0  0  0  0  0  0  0  0
  188.5833  160.2232  127.9210 C   0  0  2  0  0  0  0  0  0  0  0  0
  187.9290  161.3395  128.6903 C   0  0  0  0  0  0  0  0  0  0  0  0
  189.1290  159.1072  128.8340 C   0  0  1  0  0  0  0  0  0  0  0  0
  189.1113  159.6427  130.1106 O   0  0  0  0  0  0  0  0  0  0  0  0
  190.0741  160.5749  130.3854 C   0  0  1  0  0  0  0  0  0  0  0  0
  189.6386  161.8600  130.9893 C   0  0  0  0  0  0  0  0  0  0  0  0
  189.1774  161.8323  132.3974 C   0  0  1  0  0  0  0  0  0  0  0  0
  189.6317  163.1853  133.0074 C   0  0  0  0  0  0  0  0  0  0  0  0
  187.8114  161.7663  132.5947 O   0  0  0  0  0  0  0  0  0  0  0  0
  187.1156  162.8103  132.0616 C   0  0  0  0  0  0  0  0  0  0  0  0
  189.8737  160.7947  133.2594 C   0  0  1  0  0  0  0  0  0  0  0  0
  189.0893  160.5617  134.3905 O   0  0  0  0  0  0  0  0  0  0  0  0
  190.0962  159.5643  132.4472 C   0  0  2  0  0  0  0  0  0  0  0  0
  190.8133  158.5034  133.2138 C   0  0  0  0  0  0  0  0  0  0  0  0
  190.9023  159.9525  131.3647 O   0  0  0  0  0  0  0  0  0  0  0  0
  188.2501  157.8982  128.6855 C   0  0  2  0  0  0  0  0  0  0  0  0
  186.9646  158.2660  129.4139 C   0  0  0  0  0  0  0  0  0  0  0  0
  188.7339  156.5881  129.1334 C   0  0  1  0  0  0  0  0  0  0  0  0
  187.9047  155.5898  128.6152 O   0  0  0  0  0  0  0  0  0  0  0  0
  187.5578  154.5517  129.4146 C   0  0  2  0  0  0  0  0  0  0  0  0
  188.6332  153.6142  129.5177 O   0  0  0  0  0  0  0  0  0  0  0  0
  188.5418  153.0999  130.8095 C   0  0  2  0  0  0  0  0  0  0  0  0
  189.5266  151.9837  131.0438 C   0  0  0  0  0  0  0  0  0  0  0  0
  187.1442  152.5573  131.0511 C   0  0  0  0  0  0  0  0  0  0  0  0
  186.3947  152.4026  129.7548 C   0  0  1  0  0  0  0  0  0  0  0  0
  186.3948  153.7051  128.9849 C   0  0  1  0  0  0  0  0  0  0  0  0
  185.1961  154.3811  129.1490 O   0  0  0  0  0  0  0  0  0  0  0  0
  187.0677  151.3635  128.9835 N   0  0  0  0  0  0  0  0  0  0  0  0
  188.3784  151.8129  128.5479 C   0  0  0  0  0  0  0  0  0  0  0  0
  186.2736  151.1432  127.7670 C   0  0  0  0  0  0  0  0  0  0  0  0
  190.1246  156.1642  128.7083 C   0  0  2  0  0  0  0  0  0  0  0  0
  190.4781  154.9879  129.6562 C   0  0  0  0  0  0  0  0  0  0  0  0
  191.0257  157.1219  129.0356 O   0  0  0  0  0  0  0  0  0  0  0  0
  190.1989  155.6017  127.3433 C   0  0  0  0  0  0  0  0  0  0  0  0
  191.1594  156.1765  126.3665 C   0  0  2  0  0  0  0  0  0  0  0  0
  192.5622  155.7101  126.4689 C   0  0  0  0  0  0  0  0  0  0  0  0
  191.1209  157.5511  126.4647 F   0  0  0  0  0  0  0  0  0  0  0  0
  190.7259  155.9283  124.9364 C   0  0  0  0  0  0  0  0  0  0  0  0
  191.0980  154.8431  124.4712 O   0  0  0  0  0  0  0  0  0  0  0  0
  189.9189  156.9030  124.1499 C   0  0  2  0  0  0  0  0  0  0  0  0
  189.3473  156.1135  122.9755 C   0  0  0  0  0  0  0  0  0  0  0  0
  190.6786  158.1021  123.7130 C   0  0  1  0  0  0  0  0  0  0  0  0
  191.0357  157.8936  122.3810 O   0  0  0  0  0  0  0  0  0  0  0  0
  189.9146  159.4120  123.7717 C   0  0  1  0  0  0  0  0  0  0  0  0
  188.4435  159.1875  124.0260 C   0  0  0  0  0  0  0  0  0  0  0  0
  189.9741  160.0314  122.4995 O   0  0  0  0  0  0  0  0  0  0  0  0
  1  2  1  0
  3  2  1  6
  3  4  1  0
  4  5  1  0
  5  6  2  0
  5  7  1  0
  7  8  1  1
  7  9  1  0
  9 10  1  1
 11 10  1  1
 11 12  1  0
 12 13  1  0
 13 14  1  1
 13 15  1  0
 15 16  1  0
 13 17  1  0
 17 18  1  1
 17 19  1  0
 19 20  1  1
 19 21  1  0
  9 22  1  0
 22 23  1  1
 22 24  1  0
 24 25  1  6
 26 25  1  6
 26 27  1  0
 27 28  1  0
 28 29  1  6
 28 30  1  0
 30 31  1  0
 31 32  1  0
 32 33  1  1
 31 34  1  6
 34 35  1  0
 34 36  1  0
 24 37  1  0
 37 38  1  1
 37 39  1  0
 37 40  1  0
 40 41  1  0
 41 42  1  6
 41 43  1  0
 41 44  1  0
 44 45  2  0
 44 46  1  0
 46 47  1  6
 46 48  1  0
 48 49  1  6
 48 50  1  0
 50 51  1  1
 50 52  1  0
 50  3  1  0
 21 11  1  0
 32 26  1  0
M  END
$$$$
