
     RDKit          3D

 52 54  0  0  0  0  0  0  0  0999 V2000
  146.4016  162.1474  133.3519 C   0  0  0  0  0  0  0  0  0  0  0  0
  147.2690  162.8680  134.3217 C   0  0  0  0  0  0  0  0  0  0  0  0
  147.8731  164.1566  133.8076 C   0  0  1  0  0  0  0  0  0  0  0  0
  147.7465  164.2692  132.4814 O   0  0  0  0  0  0  0  0  0  0  0  0
  148.0238  163.8315  131.2693 C   0  0  0  0  0  0  0  0  0  0  0  0
  148.5899  162.7883  130.8325 O   0  0  0  0  0  0  0  0  0  0  0  0
  147.5901  164.7435  130.1353 C   0  0  2  0  0  0  0  0  0  0  0  0
  147.0228  163.8425  129.0713 C   0  0  0  0  0  0  0  0  0  0  0  0
  148.7741  165.5926  129.6313 C   0  0  1  0  0  0  0  0  0  0  0  0
  149.1385  165.0245  128.4224 O   0  0  0  0  0  0  0  0  0  0  0  0
  148.3070  165.2747  127.3653 C   0  0  1  0  0  0  0  0  0  0  0  0
  148.8850  165.1987  125.9992 C   0  0  0  0  0  0  0  0  0  0  0  0
  149.2401  163.8566  125.4807 C   0  0  1  0  0  0  0  0  0  0  0  0
  148.9496  163.9124  123.9570 C   0  0  0  0  0  0  0  0  0  0  0  0
  150.5647  163.4827  125.6013 O   0  0  0  0  0  0  0  0  0  0  0  0
  151.3883  164.0197  124.6571 C   0  0  0  0  0  0  0  0  0  0  0  0
  148.3414  162.7395  125.9798 C   0  0  1  0  0  0  0  0  0  0  0  0
  149.0041  161.5244  125.7968 O   0  0  0  0  0  0  0  0  0  0  0  0
  147.9959  163.0000  127.4066 C   0  0  2  0  0  0  0  0  0  0  0  0
  147.0798  161.9624  127.9646 C   0  0  0  0  0  0  0  0  0  0  0  0
  147.3315  164.2371  127.4270 O   0  0  0  0  0  0  0  0  0  0  0  0
  148.3174  167.0179  129.5032 C   0  0  2  0  0  0  0  0  0  0  0  0
  147.4142  167.0231  128.2774 C   0  0  0  0  0  0  0  0  0  0  0  0
  149.3097  168.0939  129.4111 C   0  0  1  0  0  0  0  0  0  0  0  0
  148.6770  169.3222  129.6204 O   0  0  0  0  0  0  0  0  0  0  0  0
  148.7663  170.2728  128.6584 C   0  0  2  0  0  0  0  0  0  0  0  0
  149.4352  171.4341  129.1584 O   0  0  0  0  0  0  0  0  0  0  0  0
  150.1352  171.9458  128.0676 C   0  0  2  0  0  0  0  0  0  0  0  0
  150.7929  173.2634  128.3866 C   0  0  0  0  0  0  0  0  0  0  0  0
  149.1872  172.1595  126.9006 C   0  0  0  0  0  0  0  0  0  0  0  0
  147.7529  172.1060  127.3546 C   0  0  1  0  0  0  0  0  0  0  0  0
  147.4828  170.8193  128.1035 C   0  0  1  0  0  0  0  0  0  0  0  0
  146.8544  169.8910  127.2887 O   0  0  0  0  0  0  0  0  0  0  0  0
  147.5293  173.2520  128.2287 N   0  0  0  0  0  0  0  0  0  0  0  0
  146.5521  172.9339  129.2552 C   0  0  0  0  0  0  0  0  0  0  0  0
  146.9417  174.3176  127.4053 C   0  0  0  0  0  0  0  0  0  0  0  0
  150.4476  168.0946  130.4108 C   0  0  2  0  0  0  0  0  0  0  0  0
  151.4994  169.0580  129.8004 C   0  0  0  0  0  0  0  0  0  0  0  0
  151.0734  166.8927  130.4077 O   0  0  0  0  0  0  0  0  0  0  0  0
  150.1024  168.6757  131.7255 C   0  0  0  0  0  0  0  0  0  0  0  0
  150.3426  167.8854  132.9604 C   0  0  2  0  0  0  0  0  0  0  0  0
  151.7260  167.8963  133.4913 C   0  0  0  0  0  0  0  0  0  0  0  0
  149.9430  166.5848  132.7380 F   0  0  0  0  0  0  0  0  0  0  0  0
  149.4416  168.3256  134.0958 C   0  0  0  0  0  0  0  0  0  0  0  0
  149.8863  169.2677  134.7646 O   0  0  0  0  0  0  0  0  0  0  0  0
  148.1291  167.6841  134.3887 C   0  0  2  0  0  0  0  0  0  0  0  0
  147.3784  168.6683  135.2814 C   0  0  0  0  0  0  0  0  0  0  0  0
  148.2397  166.3341  134.9980 C   0  0  1  0  0  0  0  0  0  0  0  0
  148.0456  166.4905  136.3701 O   0  0  0  0  0  0  0  0  0  0  0  0
  147.2211  165.3181  134.5150 C   0  0  1  0  0  0  0  0  0  0  0  0
  146.1348  165.9672  133.6917 C   0  0  0  0  0  0  0  0  0  0  0  0
  146.5516  164.7749  135.6384 O   0  0  0  0  0  0  0  0  0  0  0  0
  1  2  1  0
  3  2  1  1
  3  4  1  0
  4  5  1  0
  5  6  2  0
  5  7  1  0
  7  8  1  6
  7  9  1  0
  9 10  1  6
 11 10  1  1
 11 12  1  0
 12 13  1  0
 13 14  1  6
 13 15  1  0
 15 16  1  0
 13 17  1  0
 17 18  1  1
 17 19  1  0
 19 20  1  6
 19 21  1  0
  9 22  1  0
 22 23  1  6
 22 24  1  0
 24 25  1  1
 26 25  1  1
 26 27  1  0
 27 28  1  0
 28 29  1  1
 28 30  1  0
 30 31  1  0
 31 32  1  0
 32 33  1  6
 31 34  1  1
 34 35  1  0
 34 36  1  0
 24 37  1  0
 37 38  1  6
 37 39  1  0
 37 40  1  0
 40 41  1  0
 41 42  1  1
 41 43  1  0
 41 44  1  0
 44 45  2  0
 44 46  1  0
 46 47  1  1
 46 48  1  0
 48 49  1  1
 48 50  1  0
 50 51  1  6
 50 52  1  0
 50  3  1  0
 21 11  1  0
 32 26  1  0
M  END
$$$$
