
     RDKit          3D

 52 54  0  0  0  0  0  0  0  0999 V2000
  122.9172  159.2699  146.5955 C   0  0  0  0  0  0  0  0  0  0  0  0
  121.7954  160.1136  147.0872 C   0  0  0  0  0  0  0  0  0  0  0  0
  122.0395  161.6056  147.0242 C   0  0  1  0  0  0  0  0  0  0  0  0
  123.2181  161.9384  147.5607 O   0  0  0  0  0  0  0  0  0  0  0  0
  124.0147  162.0042  148.6088 C   0  0  0  0  0  0  0  0  0  0  0  0
  123.9401  161.5449  149.7848 O   0  0  0  0  0  0  0  0  0  0  0  0
  125.2981  162.7882  148.3999 C   0  0  2  0  0  0  0  0  0  0  0  0
  126.3832  161.9983  149.0815 C   0  0  0  0  0  0  0  0  0  0  0  0
  125.1624  164.2202  148.9546 C   0  0  1  0  0  0  0  0  0  0  0  0
  125.8930  164.2238  150.1307 O   0  0  0  0  0  0  0  0  0  0  0  0
  125.1693  164.3149  151.2881 C   0  0  1  0  0  0  0  0  0  0  0  0
  125.3073  163.2155  152.2771 C   0  0  0  0  0  0  0  0  0  0  0  0
  126.5889  163.1159  153.0145 C   0  0  1  0  0  0  0  0  0  0  0  0
  126.2116  162.6063  154.4313 C   0  0  0  0  0  0  0  0  0  0  0  0
  127.5129  162.2153  152.5207 O   0  0  0  0  0  0  0  0  0  0  0  0
  128.6691  162.1454  153.2394 C   0  0  0  0  0  0  0  0  0  0  0  0
  127.2603  164.4518  153.2774 C   0  0  1  0  0  0  0  0  0  0  0  0
  128.6065  164.2204  153.5657 O   0  0  0  0  0  0  0  0  0  0  0  0
  127.0668  165.3306  152.0885 C   0  0  2  0  0  0  0  0  0  0  0  0
  127.6677  166.6829  152.2818 C   0  0  0  0  0  0  0  0  0  0  0  0
  125.6787  165.4785  151.9351 O   0  0  0  0  0  0  0  0  0  0  0  0
  125.6885  165.1809  147.9267 C   0  0  2  0  0  0  0  0  0  0  0  0
  127.1994  164.9966  147.9663 C   0  0  0  0  0  0  0  0  0  0  0  0
  125.3449  166.6038  148.0182 C   0  0  1  0  0  0  0  0  0  0  0  0
  125.6659  167.2329  146.8124 O   0  0  0  0  0  0  0  0  0  0  0  0
  126.9067  167.7570  146.6617 C   0  0  2  0  0  0  0  0  0  0  0  0
  126.8872  168.8353  145.7220 O   0  0  0  0  0  0  0  0  0  0  0  0
  127.8527  169.7303  146.1786 C   0  0  2  0  0  0  0  0  0  0  0  0
  128.0631  170.8722  145.2183 C   0  0  0  0  0  0  0  0  0  0  0  0
  129.1784  169.0116  146.3581 C   0  0  0  0  0  0  0  0  0  0  0  0
  129.1637  167.6735  145.6686 C   0  0  1  0  0  0  0  0  0  0  0  0
  127.9817  166.8516  146.1339 C   0  0  1  0  0  0  0  0  0  0  0  0
  128.3655  165.9219  147.0872 O   0  0  0  0  0  0  0  0  0  0  0  0
  129.0683  167.9230  144.2347 N   0  0  0  0  0  0  0  0  0  0  0  0
  129.4381  166.7383  143.4801 C   0  0  0  0  0  0  0  0  0  0  0  0
  130.0604  168.9561  143.9072 C   0  0  0  0  0  0  0  0  0  0  0  0
  123.8920  166.9678  148.2441 C   0  0  2  0  0  0  0  0  0  0  0  0
  123.9305  168.4492  148.7038 C   0  0  0  0  0  0  0  0  0  0  0  0
  123.4076  166.3091  149.3246 O   0  0  0  0  0  0  0  0  0  0  0  0
  123.0650  166.9606  147.0189 C   0  0  0  0  0  0  0  0  0  0  0  0
  121.8192  166.1521  146.9820 C   0  0  2  0  0  0  0  0  0  0  0  0
  120.6196  166.7611  147.6030 C   0  0  0  0  0  0  0  0  0  0  0  0
  122.0693  164.9272  147.5634 F   0  0  0  0  0  0  0  0  0  0  0  0
  121.4300  165.7801  145.5661 C   0  0  0  0  0  0  0  0  0  0  0  0
  120.7439  166.6311  144.9850 O   0  0  0  0  0  0  0  0  0  0  0  0
  121.8355  164.5001  144.9202 C   0  0  2  0  0  0  0  0  0  0  0  0
  121.6282  164.7093  143.4228 C   0  0  0  0  0  0  0  0  0  0  0  0
  121.1117  163.3091  145.4336 C   0  0  1  0  0  0  0  0  0  0  0  0
  120.1037  163.0190  144.5144 O   0  0  0  0  0  0  0  0  0  0  0  0
  121.9519  162.0548  145.5871 C   0  0  1  0  0  0  0  0  0  0  0  0
  123.3073  162.2101  144.9408 C   0  0  0  0  0  0  0  0  0  0  0  0
  121.3286  160.9995  144.8776 O   0  0  0  0  0  0  0  0  0  0  0  0
  1  2  1  0
  3  2  1  6
  3  4  1  0
  4  5  1  0
  5  6  2  0
  5  7  1  0
  7  8  1  1
  7  9  1  0
  9 10  1  1
 11 10  1  6
 11 12  1  0
 12 13  1  0
 13 14  1  1
 13 15  1  0
 15 16  1  0
 13 17  1  0
 17 18  1  6
 17 19  1  0
 19 20  1  1
 19 21  1  0
  9 22  1  0
 22 23  1  1
 22 24  1  0
 24 25  1  6
 26 25  1  6
 26 27  1  0
 27 28  1  0
 28 29  1  6
 28 30  1  0
 30 31  1  0
 31 32  1  0
 32 33  1  1
 31 34  1  6
 34 35  1  0
 34 36  1  0
 24 37  1  0
 37 38  1  1
 37 39  1  0
 37 40  1  0
 40 41  1  0
 41 42  1  1
 41 43  1  0
 41 44  1  0
 44 45  2  0
 44 46  1  0
 46 47  1  6
 46 48  1  0
 48 49  1  6
 48 50  1  0
 50 51  1  6
 50 52  1  0
 50  3  1  0
 21 11  1  0
 32 26  1  0
M  END
$$$$
