
     RDKit          3D

 52 54  0  0  0  0  0  0  0  0999 V2000
  124.1891  165.0103  150.5643 C   0  0  0  0  0  0  0  0  0  0  0  0
  124.4202  164.1186  149.3965 C   0  0  0  0  0  0  0  0  0  0  0  0
  123.2368  163.9594  148.4670 C   0  0  1  0  0  0  0  0  0  0  0  0
  122.7092  165.1405  148.1292 O   0  0  0  0  0  0  0  0  0  0  0  0
  122.0962  166.2551  148.4749 C   0  0  0  0  0  0  0  0  0  0  0  0
  121.8068  166.7754  149.5907 O   0  0  0  0  0  0  0  0  0  0  0  0
  121.6225  167.1199  147.3202 C   0  0  2  0  0  0  0  0  0  0  0  0
  121.9339  168.5401  147.7097 C   0  0  0  0  0  0  0  0  0  0  0  0
  120.1234  166.8907  147.0425 C   0  0  1  0  0  0  0  0  0  0  0  0
  119.4866  168.0136  147.5430 O   0  0  0  0  0  0  0  0  0  0  0  0
  118.8534  167.8600  148.7460 C   0  0  1  0  0  0  0  0  0  0  0  0
  118.7556  169.0485  149.6314 C   0  0  0  0  0  0  0  0  0  0  0  0
  117.8371  170.1355  149.2178 C   0  0  1  0  0  0  0  0  0  0  0  0
  117.2576  170.7111  150.5377 C   0  0  0  0  0  0  0  0  0  0  0  0
  118.4101  171.2049  148.5565 O   0  0  0  0  0  0  0  0  0  0  0  0
  119.3456  171.8791  149.2835 C   0  0  0  0  0  0  0  0  0  0  0  0
  116.6103  169.6588  148.4614 C   0  0  1  0  0  0  0  0  0  0  0  0
  116.0713  170.7428  147.7660 O   0  0  0  0  0  0  0  0  0  0  0  0
  117.0039  168.5349  147.5642 C   0  0  2  0  0  0  0  0  0  0  0  0
  115.8418  167.9815  146.8088 C   0  0  0  0  0  0  0  0  0  0  0  0
  117.5108  167.5275  148.4011 O   0  0  0  0  0  0  0  0  0  0  0  0
  119.9350  166.7121  145.5630 C   0  0  2  0  0  0  0  0  0  0  0  0
  120.1283  168.1054  144.9801 C   0  0  0  0  0  0  0  0  0  0  0  0
  118.6966  166.1131  145.0548 C   0  0  1  0  0  0  0  0  0  0  0  0
  118.8732  165.7585  143.7147 O   0  0  0  0  0  0  0  0  0  0  0  0
  117.8347  165.9143  142.8577 C   0  0  2  0  0  0  0  0  0  0  0  0
  116.9706  164.7752  142.9014 O   0  0  0  0  0  0  0  0  0  0  0  0
  115.6922  165.2825  142.6777 C   0  0  2  0  0  0  0  0  0  0  0  0
  114.6644  164.1879  142.5524 C   0  0  0  0  0  0  0  0  0  0  0  0
  115.6771  166.0959  141.3953 C   0  0  0  0  0  0  0  0  0  0  0  0
  116.9089  165.8275  140.5725 C   0  0  1  0  0  0  0  0  0  0  0  0
  118.1564  166.0544  141.3980 C   0  0  1  0  0  0  0  0  0  0  0  0
  118.7159  167.2926  141.1255 O   0  0  0  0  0  0  0  0  0  0  0  0
  116.8443  164.4386  140.1315 N   0  0  0  0  0  0  0  0  0  0  0  0
  117.9745  164.1163  139.2779 C   0  0  0  0  0  0  0  0  0  0  0  0
  115.6392  164.3024  139.3021 C   0  0  0  0  0  0  0  0  0  0  0  0
  118.2076  164.8370  145.7083 C   0  0  2  0  0  0  0  0  0  0  0  0
  116.7290  164.7115  145.2555 C   0  0  0  0  0  0  0  0  0  0  0  0
  118.1192  165.0032  147.0502 O   0  0  0  0  0  0  0  0  0  0  0  0
  118.8712  163.6099  145.2195 C   0  0  0  0  0  0  0  0  0  0  0  0
  119.5055  162.6840  146.1929 C   0  0  2  0  0  0  0  0  0  0  0  0
  118.6021  161.7350  146.8851 C   0  0  0  0  0  0  0  0  0  0  0  0
  120.1967  163.4281  147.1254 F   0  0  0  0  0  0  0  0  0  0  0  0
  120.5958  161.8511  145.5508 C   0  0  0  0  0  0  0  0  0  0  0  0
  120.1941  160.8097  145.0154 O   0  0  0  0  0  0  0  0  0  0  0  0
  122.0325  162.2457  145.5585 C   0  0  2  0  0  0  0  0  0  0  0  0
  122.6977  161.4043  144.4729 C   0  0  0  0  0  0  0  0  0  0  0  0
  122.6931  162.0942  146.8801 C   0  0  1  0  0  0  0  0  0  0  0  0
  123.4091  160.8980  146.8416 O   0  0  0  0  0  0  0  0  0  0  0  0
  123.6752  163.1920  147.2449 C   0  0  1  0  0  0  0  0  0  0  0  0
  123.9698  164.0894  146.0671 C   0  0  0  0  0  0  0  0  0  0  0  0
  124.9194  162.5999  147.5719 O   0  0  0  0  0  0  0  0  0  0  0  0
  1  2  1  0
  3  2  1  1
  3  4  1  0
  4  5  1  0
  5  6  2  0
  5  7  1  0
  7  8  1  1
  7  9  1  0
  9 10  1  6
 11 10  1  6
 11 12  1  0
 12 13  1  0
 13 14  1  1
 13 15  1  0
 15 16  1  0
 13 17  1  0
 17 18  1  6
 17 19  1  0
 19 20  1  1
 19 21  1  0
  9 22  1  0
 22 23  1  6
 22 24  1  0
 24 25  1  6
 26 25  1  1
 26 27  1  0
 27 28  1  0
 28 29  1  6
 28 30  1  0
 30 31  1  0
 31 32  1  0
 32 33  1  1
 31 34  1  1
 34 35  1  0
 34 36  1  0
 24 37  1  0
 37 38  1  6
 37 39  1  0
 37 40  1  0
 40 41  1  0
 41 42  1  1
 41 43  1  0
 41 44  1  0
 44 45  2  0
 44 46  1  0
 46 47  1  6
 46 48  1  0
 48 49  1  6
 48 50  1  0
 50 51  1  6
 50 52  1  0
 50  3  1  0
 21 11  1  0
 32 26  1  0
M  END
$$$$
