
     RDKit          3D

 52 54  0  0  0  0  0  0  0  0999 V2000
  182.5922  146.0699  125.8785 C   0  0  0  0  0  0  0  0  0  0  0  0
  182.0942  147.2538  125.1286 C   0  0  0  0  0  0  0  0  0  0  0  0
  180.9070  146.9899  124.2282 C   0  0  1  0  0  0  0  0  0  0  0  0
  179.9531  146.2949  124.8563 O   0  0  0  0  0  0  0  0  0  0  0  0
  179.5552  145.1890  125.4533 C   0  0  0  0  0  0  0  0  0  0  0  0
  180.1570  144.1425  125.8304 O   0  0  0  0  0  0  0  0  0  0  0  0
  178.0715  145.1197  125.7682 C   0  0  2  0  0  0  0  0  0  0  0  0
  177.9665  144.5201  127.1449 C   0  0  0  0  0  0  0  0  0  0  0  0
  177.3219  144.2992  124.6996 C   0  0  1  0  0  0  0  0  0  0  0  0
  177.0391  143.0872  125.3062 O   0  0  0  0  0  0  0  0  0  0  0  0
  178.1009  142.2445  125.4906 C   0  0  1  0  0  0  0  0  0  0  0  0
  178.1099  141.4025  126.7140 C   0  0  0  0  0  0  0  0  0  0  0  0
  177.1353  140.2883  126.7843 C   0  0  1  0  0  0  0  0  0  0  0  0
  177.8589  139.1550  127.5597 C   0  0  0  0  0  0  0  0  0  0  0  0
  175.9671  140.5375  127.4787 O   0  0  0  0  0  0  0  0  0  0  0  0
  175.4794  139.4633  128.1618 C   0  0  0  0  0  0  0  0  0  0  0  0
  176.8126  139.6588  125.4411 C   0  0  1  0  0  0  0  0  0  0  0  0
  175.6117  138.9566  125.5595 O   0  0  0  0  0  0  0  0  0  0  0  0
  176.7550  140.7318  124.4075 C   0  0  2  0  0  0  0  0  0  0  0  0
  176.4784  140.1894  123.0449 C   0  0  0  0  0  0  0  0  0  0  0  0
  178.0246  141.3321  124.3979 O   0  0  0  0  0  0  0  0  0  0  0  0
  176.0923  145.0594  124.2915 C   0  0  2  0  0  0  0  0  0  0  0  0
  175.1463  144.9248  125.4769 C   0  0  0  0  0  0  0  0  0  0  0  0
  175.4023  144.7108  123.0451 C   0  0  1  0  0  0  0  0  0  0  0  0
  174.5049  145.7300  122.7156 O   0  0  0  0  0  0  0  0  0  0  0  0
  173.2605  145.7003  123.2519 C   0  0  2  0  0  0  0  0  0  0  0  0
  172.2925  145.3494  122.2589 O   0  0  0  0  0  0  0  0  0  0  0  0
  171.3203  144.6223  122.9429 C   0  0  2  0  0  0  0  0  0  0  0  0
  170.1426  144.2885  122.0643 C   0  0  0  0  0  0  0  0  0  0  0  0
  170.8145  145.4254  124.1285 C   0  0  0  0  0  0  0  0  0  0  0  0
  171.2267  146.8689  124.0168 C   0  0  1  0  0  0  0  0  0  0  0  0
  172.7239  146.9786  123.8281 C   0  0  1  0  0  0  0  0  0  0  0  0
  173.3548  147.2934  125.0211 O   0  0  0  0  0  0  0  0  0  0  0  0
  170.5328  147.4323  122.8641 N   0  0  0  0  0  0  0  0  0  0  0  0
  171.2750  148.5528  122.3133 C   0  0  0  0  0  0  0  0  0  0  0  0
  169.2550  147.9724  123.3483 C   0  0  0  0  0  0  0  0  0  0  0  0
  176.2409  144.5448  121.7946 C   0  0  2  0  0  0  0  0  0  0  0  0
  175.3145  143.7916  120.8038 C   0  0  0  0  0  0  0  0  0  0  0  0
  177.2491  143.6682  122.0208 O   0  0  0  0  0  0  0  0  0  0  0  0
  176.5849  145.8140  121.1195 C   0  0  0  0  0  0  0  0  0  0  0  0
  178.0080  146.1247  120.8271 C   0  0  2  0  0  0  0  0  0  0  0  0
  178.5826  145.5012  119.6118 C   0  0  0  0  0  0  0  0  0  0  0  0
  178.7696  145.7851  121.9250 F   0  0  0  0  0  0  0  0  0  0  0  0
  178.2452  147.6155  120.7001 C   0  0  0  0  0  0  0  0  0  0  0  0
  178.0453  148.0694  119.5659 O   0  0  0  0  0  0  0  0  0  0  0  0
  178.6818  148.4700  121.8399 C   0  0  2  0  0  0  0  0  0  0  0  0
  178.3830  149.9058  121.4177 C   0  0  0  0  0  0  0  0  0  0  0  0
  180.1015  148.2759  122.2307 C   0  0  1  0  0  0  0  0  0  0  0  0
  180.8269  149.3203  121.6579 O   0  0  0  0  0  0  0  0  0  0  0  0
  180.3744  148.3074  123.7231 C   0  0  1  0  0  0  0  0  0  0  0  0
  179.1712  148.7862  124.4991 C   0  0  0  0  0  0  0  0  0  0  0  0
  181.3811  149.2692  123.9819 O   0  0  0  0  0  0  0  0  0  0  0  0
  1  2  1  0
  3  2  1  1
  3  4  1  0
  4  5  1  0
  5  6  2  0
  5  7  1  0
  7  8  1  1
  7  9  1  0
  9 10  1  1
 11 10  1  1
 11 12  1  0
 12 13  1  0
 13 14  1  1
 13 15  1  0
 15 16  1  0
 13 17  1  0
 17 18  1  1
 17 19  1  0
 19 20  1  6
 19 21  1  0
  9 22  1  0
 22 23  1  1
 22 24  1  0
 24 25  1  6
 26 25  1  6
 26 27  1  0
 27 28  1  0
 28 29  1  6
 28 30  1  0
 30 31  1  0
 31 32  1  0
 32 33  1  1
 31 34  1  6
 34 35  1  0
 34 36  1  0
 24 37  1  0
 37 38  1  6
 37 39  1  0
 37 40  1  0
 40 41  1  0
 41 42  1  6
 41 43  1  0
 41 44  1  0
 44 45  2  0
 44 46  1  0
 46 47  1  6
 46 48  1  0
 48 49  1  6
 48 50  1  0
 50 51  1  1
 50 52  1  0
 50  3  1  0
 21 11  1  0
 32 26  1  0
M  END
$$$$
