
     RDKit          3D

 52 54  0  0  0  0  0  0  0  0999 V2000
  121.0234  136.4709  136.3650 C   0  0  0  0  0  0  0  0  0  0  0  0
  122.1501  135.8137  135.6503 C   0  0  0  0  0  0  0  0  0  0  0  0
  122.8893  136.6967  134.6687 C   0  0  1  0  0  0  0  0  0  0  0  0
  124.2137  136.6241  134.8362 O   0  0  0  0  0  0  0  0  0  0  0  0
  125.2797  136.8220  135.5859 C   0  0  0  0  0  0  0  0  0  0  0  0
  125.4394  137.1529  136.7961 O   0  0  0  0  0  0  0  0  0  0  0  0
  126.6118  136.6222  134.8851 C   0  0  2  0  0  0  0  0  0  0  0  0
  127.4910  135.8914  135.8643 C   0  0  0  0  0  0  0  0  0  0  0  0
  127.2058  137.9738  134.4410 C   0  0  1  0  0  0  0  0  0  0  0  0
  128.2343  138.2278  135.3323 O   0  0  0  0  0  0  0  0  0  0  0  0
  129.4924  137.8964  134.9094 C   0  0  1  0  0  0  0  0  0  0  0  0
  130.5282  138.9609  134.9232 C   0  0  0  0  0  0  0  0  0  0  0  0
  131.0254  139.4140  136.2437 C   0  0  1  0  0  0  0  0  0  0  0  0
  132.5248  139.7517  136.0266 C   0  0  0  0  0  0  0  0  0  0  0  0
  130.4485  140.5599  136.7566 O   0  0  0  0  0  0  0  0  0  0  0  0
  131.1721  141.6958  136.5462 C   0  0  0  0  0  0  0  0  0  0  0  0
  131.0488  138.3288  137.3050 C   0  0  1  0  0  0  0  0  0  0  0  0
  131.1054  138.9390  138.5594 O   0  0  0  0  0  0  0  0  0  0  0  0
  129.8459  137.4642  137.1368 C   0  0  2  0  0  0  0  0  0  0  0  0
  129.8126  136.3444  138.1228 C   0  0  0  0  0  0  0  0  0  0  0  0
  129.9361  136.9178  135.8462 O   0  0  0  0  0  0  0  0  0  0  0  0
  127.6717  137.8448  133.0188 C   0  0  2  0  0  0  0  0  0  0  0  0
  128.9284  136.9892  133.1023 C   0  0  0  0  0  0  0  0  0  0  0  0
  127.9271  139.0513  132.2251 C   0  0  1  0  0  0  0  0  0  0  0  0
  128.0337  138.7008  130.8766 O   0  0  0  0  0  0  0  0  0  0  0  0
  129.2196  138.8871  130.2473 C   0  0  2  0  0  0  0  0  0  0  0  0
  129.1250  139.9553  129.3007 O   0  0  0  0  0  0  0  0  0  0  0  0
  130.3819  140.5568  129.3076 C   0  0  2  0  0  0  0  0  0  0  0  0
  130.5016  141.6271  128.2538 C   0  0  0  0  0  0  0  0  0  0  0  0
  131.4544  139.5136  129.0474 C   0  0  0  0  0  0  0  0  0  0  0  0
  130.8511  138.2424  128.5125 C   0  0  1  0  0  0  0  0  0  0  0  0
  129.7595  137.7458  129.4350 C   0  0  1  0  0  0  0  0  0  0  0  0
  130.2223  136.7257  130.2509 O   0  0  0  0  0  0  0  0  0  0  0  0
  130.2984  138.5423  127.1964 N   0  0  0  0  0  0  0  0  0  0  0  0
  129.4548  137.4548  126.7321 C   0  0  0  0  0  0  0  0  0  0  0  0
  131.4279  138.6266  126.2605 C   0  0  0  0  0  0  0  0  0  0  0  0
  126.8756  140.1416  132.2365 C   0  0  2  0  0  0  0  0  0  0  0  0
  127.6071  141.3916  131.6801 C   0  0  0  0  0  0  0  0  0  0  0  0
  126.5744  140.4872  133.5117 O   0  0  0  0  0  0  0  0  0  0  0  0
  125.7456  139.9072  131.3128 C   0  0  0  0  0  0  0  0  0  0  0  0
  124.3549  139.9431  131.8343 C   0  0  2  0  0  0  0  0  0  0  0  0
  123.7453  141.2842  131.9942 C   0  0  0  0  0  0  0  0  0  0  0  0
  124.3162  139.2712  133.0377 F   0  0  0  0  0  0  0  0  0  0  0  0
  123.4070  139.1389  130.9685 C   0  0  0  0  0  0  0  0  0  0  0  0
  122.9301  139.7670  130.0143 O   0  0  0  0  0  0  0  0  0  0  0  0
  123.0725  137.7119  131.2362 C   0  0  2  0  0  0  0  0  0  0  0  0
  122.4689  137.1790  129.9398 C   0  0  0  0  0  0  0  0  0  0  0  0
  122.1783  137.5105  132.4048 C   0  0  1  0  0  0  0  0  0  0  0  0
  120.8896  137.3286  131.9036 O   0  0  0  0  0  0  0  0  0  0  0  0
  122.4978  136.3028  133.2665 C   0  0  1  0  0  0  0  0  0  0  0  0
  123.5151  135.4025  132.6079 C   0  0  0  0  0  0  0  0  0  0  0  0
  121.3319  135.5081  133.3871 O   0  0  0  0  0  0  0  0  0  0  0  0
  1  2  1  0
  3  2  1  1
  3  4  1  0
  4  5  1  0
  5  6  2  0
  5  7  1  0
  7  8  1  1
  7  9  1  0
  9 10  1  1
 11 10  1  1
 11 12  1  0
 12 13  1  0
 13 14  1  6
 13 15  1  0
 15 16  1  0
 13 17  1  0
 17 18  1  1
 17 19  1  0
 19 20  1  1
 19 21  1  0
  9 22  1  0
 22 23  1  1
 22 24  1  0
 24 25  1  6
 26 25  1  6
 26 27  1  0
 27 28  1  0
 28 29  1  6
 28 30  1  0
 30 31  1  0
 31 32  1  0
 32 33  1  1
 31 34  1  6
 34 35  1  0
 34 36  1  0
 24 37  1  0
 37 38  1  6
 37 39  1  0
 37 40  1  0
 40 41  1  0
 41 42  1  1
 41 43  1  0
 41 44  1  0
 44 45  2  0
 44 46  1  0
 46 47  1  6
 46 48  1  0
 48 49  1  6
 48 50  1  0
 50 51  1  6
 50 52  1  0
 50  3  1  0
 21 11  1  0
 32 26  1  0
M  END
$$$$
