
     RDKit          3D

 52 54  0  0  0  0  0  0  0  0999 V2000
  178.8134  157.9200  140.9119 C   0  0  0  0  0  0  0  0  0  0  0  0
  180.0297  158.3706  141.6397 C   0  0  0  0  0  0  0  0  0  0  0  0
  181.2776  158.4886  140.7920 C   0  0  1  0  0  0  0  0  0  0  0  0
  181.0840  159.2799  139.7320 O   0  0  0  0  0  0  0  0  0  0  0  0
  180.4685  159.5284  138.5931 C   0  0  0  0  0  0  0  0  0  0  0  0
  179.4927  158.9863  137.9986 O   0  0  0  0  0  0  0  0  0  0  0  0
  181.0185  160.7012  137.8009 C   0  0  2  0  0  0  0  0  0  0  0  0
  179.8206  161.4418  137.2692 C   0  0  0  0  0  0  0  0  0  0  0  0
  181.9642  160.2140  136.6851 C   0  0  1  0  0  0  0  0  0  0  0  0
  181.2420  160.3526  135.5121 O   0  0  0  0  0  0  0  0  0  0  0  0
  181.8355  161.0891  134.5237 C   0  0  1  0  0  0  0  0  0  0  0  0
  181.7646  160.5658  133.1355 C   0  0  0  0  0  0  0  0  0  0  0  0
  180.4477  160.6037  132.4569 C   0  0  1  0  0  0  0  0  0  0  0  0
  180.7614  160.8786  130.9618 C   0  0  0  0  0  0  0  0  0  0  0  0
  179.7106  159.4353  132.4816 O   0  0  0  0  0  0  0  0  0  0  0  0
  180.0227  158.5957  133.5091 C   0  0  0  0  0  0  0  0  0  0  0  0
  179.5719  161.7749  132.8642 C   0  0  1  0  0  0  0  0  0  0  0  0
  178.2514  161.4794  132.5205 O   0  0  0  0  0  0  0  0  0  0  0  0
  179.7472  162.0230  134.3239 C   0  0  2  0  0  0  0  0  0  0  0  0
  178.9449  163.1882  134.7992 C   0  0  0  0  0  0  0  0  0  0  0  0
  181.1084  162.3152  134.5087 O   0  0  0  0  0  0  0  0  0  0  0  0
  183.2102  161.0523  136.7172 C   0  0  2  0  0  0  0  0  0  0  0  0
  182.7788  162.4030  136.1624 C   0  0  0  0  0  0  0  0  0  0  0  0
  184.4203  160.5826  136.0346 C   0  0  1  0  0  0  0  0  0  0  0  0
  185.5126  161.3437  136.4591 O   0  0  0  0  0  0  0  0  0  0  0  0
  186.6399  161.3410  135.7065 C   0  0  2  0  0  0  0  0  0  0  0  0
  187.7859  161.0658  136.5171 O   0  0  0  0  0  0  0  0  0  0  0  0
  188.6501  160.3507  135.6903 C   0  0  2  0  0  0  0  0  0  0  0  0
  189.9808  160.0961  136.3499 C   0  0  0  0  0  0  0  0  0  0  0  0
  188.8972  161.1263  134.4083 C   0  0  0  0  0  0  0  0  0  0  0  0
  188.4481  162.5562  134.5486 C   0  0  1  0  0  0  0  0  0  0  0  0
  187.0061  162.6158  135.0031 C   0  0  1  0  0  0  0  0  0  0  0  0
  186.1568  162.8601  133.9356 O   0  0  0  0  0  0  0  0  0  0  0  0
  189.3128  163.1897  135.5378 N   0  0  0  0  0  0  0  0  0  0  0  0
  190.2320  164.1162  134.9003 C   0  0  0  0  0  0  0  0  0  0  0  0
  190.1341  162.1296  136.1382 C   0  0  0  0  0  0  0  0  0  0  0  0
  184.8575  159.1522  136.2735 C   0  0  2  0  0  0  0  0  0  0  0  0
  185.8639  158.8582  135.1298 C   0  0  0  0  0  0  0  0  0  0  0  0
  183.8320  158.3022  136.0247 O   0  0  0  0  0  0  0  0  0  0  0  0
  185.6180  158.9490  137.5247 C   0  0  0  0  0  0  0  0  0  0  0  0
  185.1667  157.9196  138.4961 C   0  0  2  0  0  0  0  0  0  0  0  0
  185.5654  156.5217  138.2081 C   0  0  0  0  0  0  0  0  0  0  0  0
  183.7951  157.9940  138.6144 F   0  0  0  0  0  0  0  0  0  0  0  0
  185.6434  158.2230  139.9016 C   0  0  0  0  0  0  0  0  0  0  0  0
  186.7737  157.7903  140.1618 O   0  0  0  0  0  0  0  0  0  0  0  0
  184.8267  158.9786  140.8926 C   0  0  2  0  0  0  0  0  0  0  0  0
  185.8039  159.4306  141.9742 C   0  0  0  0  0  0  0  0  0  0  0  0
  183.6834  158.2082  141.4451 C   0  0  1  0  0  0  0  0  0  0  0  0
  184.0797  157.7334  142.6952 O   0  0  0  0  0  0  0  0  0  0  0  0
  182.4058  159.0007  141.6520 C   0  0  1  0  0  0  0  0  0  0  0  0
  182.6377  160.4834  141.4879 C   0  0  0  0  0  0  0  0  0  0  0  0
  181.9851  158.8441  142.9951 O   0  0  0  0  0  0  0  0  0  0  0  0
  1  2  1  0
  3  2  1  1
  3  4  1  0
  4  5  1  0
  5  6  2  0
  5  7  1  0
  7  8  1  6
  7  9  1  0
  9 10  1  6
 11 10  1  1
 11 12  1  0
 12 13  1  0
 13 14  1  6
 13 15  1  0
 15 16  1  0
 13 17  1  0
 17 18  1  1
 17 19  1  0
 19 20  1  6
 19 21  1  0
  9 22  1  0
 22 23  1  6
 22 24  1  0
 24 25  1  1
 26 25  1  1
 26 27  1  0
 27 28  1  0
 28 29  1  1
 28 30  1  0
 30 31  1  0
 31 32  1  0
 32 33  1  6
 31 34  1  1
 34 35  1  0
 34 36  1  0
 24 37  1  0
 37 38  1  6
 37 39  1  0
 37 40  1  0
 40 41  1  0
 41 42  1  6
 41 43  1  0
 41 44  1  0
 44 45  2  0
 44 46  1  0
 46 47  1  1
 46 48  1  0
 48 49  1  1
 48 50  1  0
 50 51  1  6
 50 52  1  0
 50  3  1  0
 21 11  1  0
 32 26  1  0
M  END
$$$$
