
     RDKit          3D

 52 54  0  0  0  0  0  0  0  0999 V2000
  118.6638  169.0108  149.8235 C   0  0  0  0  0  0  0  0  0  0  0  0
  118.4152  167.5445  149.8269 C   0  0  0  0  0  0  0  0  0  0  0  0
  118.4580  166.8835  148.4664 C   0  0  1  0  0  0  0  0  0  0  0  0
  117.7880  167.5902  147.5504 O   0  0  0  0  0  0  0  0  0  0  0  0
  116.6534  168.0917  147.1045 C   0  0  0  0  0  0  0  0  0  0  0  0
  115.4917  168.1803  147.5966 O   0  0  0  0  0  0  0  0  0  0  0  0
  116.7138  168.6962  145.7130 C   0  0  2  0  0  0  0  0  0  0  0  0
  115.9040  169.9636  145.7749 C   0  0  0  0  0  0  0  0  0  0  0  0
  116.1877  167.7011  144.6595 C   0  0  1  0  0  0  0  0  0  0  0  0
  114.9336  168.1725  144.3106 O   0  0  0  0  0  0  0  0  0  0  0  0
  113.8840  167.6886  145.0425 C   0  0  1  0  0  0  0  0  0  0  0  0
  112.9214  168.6714  145.6024 C   0  0  0  0  0  0  0  0  0  0  0  0
  112.0188  169.3624  144.6515 C   0  0  1  0  0  0  0  0  0  0  0  0
  110.6843  169.5609  145.4190 C   0  0  0  0  0  0  0  0  0  0  0  0
  112.4101  170.6214  144.2383 O   0  0  0  0  0  0  0  0  0  0  0  0
  111.5917  171.6290  144.6545 C   0  0  0  0  0  0  0  0  0  0  0  0
  111.6235  168.5245  143.4490 C   0  0  1  0  0  0  0  0  0  0  0  0
  111.1609  169.3801  142.4474 O   0  0  0  0  0  0  0  0  0  0  0  0
  112.7987  167.7139  143.0191 C   0  0  2  0  0  0  0  0  0  0  0  0
  112.4813  166.8297  141.8595 C   0  0  0  0  0  0  0  0  0  0  0  0
  113.1361  166.9046  144.1162 O   0  0  0  0  0  0  0  0  0  0  0  0
  117.1521  167.6724  143.5082 C   0  0  2  0  0  0  0  0  0  0  0  0
  116.9330  168.9973  142.7905 C   0  0  0  0  0  0  0  0  0  0  0  0
  117.1105  166.5608  142.5524 C   0  0  1  0  0  0  0  0  0  0  0  0
  118.2736  166.5761  141.7781 O   0  0  0  0  0  0  0  0  0  0  0  0
  118.1799  166.9147  140.4691 C   0  0  2  0  0  0  0  0  0  0  0  0
  117.6993  165.8109  139.6966 O   0  0  0  0  0  0  0  0  0  0  0  0
  116.9408  166.3852  138.6785 C   0  0  2  0  0  0  0  0  0  0  0  0
  116.4678  165.3605  137.6801 C   0  0  0  0  0  0  0  0  0  0  0  0
  117.7698  167.4203  137.9386 C   0  0  0  0  0  0  0  0  0  0  0  0
  119.2318  167.2742  138.2665 C   0  0  1  0  0  0  0  0  0  0  0  0
  119.4445  167.3116  139.7640 C   0  0  1  0  0  0  0  0  0  0  0  0
  119.8748  168.5632  140.1751 O   0  0  0  0  0  0  0  0  0  0  0  0
  119.6731  165.9922  137.7287 N   0  0  0  0  0  0  0  0  0  0  0  0
  119.9465  166.0972  136.3060 C   0  0  0  0  0  0  0  0  0  0  0  0
  118.5528  165.0526  137.8728 C   0  0  0  0  0  0  0  0  0  0  0  0
  117.0601  165.1522  143.1071 C   0  0  2  0  0  0  0  0  0  0  0  0
  116.6081  164.2789  141.9071 C   0  0  0  0  0  0  0  0  0  0  0  0
  116.0404  165.0343  143.9918 O   0  0  0  0  0  0  0  0  0  0  0  0
  118.3744  164.6098  143.5115 C   0  0  0  0  0  0  0  0  0  0  0  0
  118.5534  164.0745  144.8858 C   0  0  2  0  0  0  0  0  0  0  0  0
  118.0823  162.6892  145.1201 C   0  0  0  0  0  0  0  0  0  0  0  0
  117.9391  164.9286  145.7768 F   0  0  0  0  0  0  0  0  0  0  0  0
  120.0032  164.1166  145.3230 C   0  0  0  0  0  0  0  0  0  0  0  0
  120.6664  163.1265  144.9879 O   0  0  0  0  0  0  0  0  0  0  0  0
  120.5888  165.2509  146.0914 C   0  0  2  0  0  0  0  0  0  0  0  0
  122.1015  165.1115  145.9450 C   0  0  0  0  0  0  0  0  0  0  0  0
  120.1574  165.3045  147.5116 C   0  0  1  0  0  0  0  0  0  0  0  0
  121.1875  164.7492  148.2702 O   0  0  0  0  0  0  0  0  0  0  0  0
  119.8980  166.6957  148.0595 C   0  0  1  0  0  0  0  0  0  0  0  0
  120.3806  167.7665  147.1109 C   0  0  0  0  0  0  0  0  0  0  0  0
  120.6698  166.8741  149.2333 O   0  0  0  0  0  0  0  0  0  0  0  0
  1  2  1  0
  3  2  1  1
  3  4  1  0
  4  5  1  0
  5  6  2  0
  5  7  1  0
  7  8  1  1
  7  9  1  0
  9 10  1  6
 11 10  1  6
 11 12  1  0
 12 13  1  0
 13 14  1  1
 13 15  1  0
 15 16  1  0
 13 17  1  0
 17 18  1  6
 17 19  1  0
 19 20  1  6
 19 21  1  0
  9 22  1  0
 22 23  1  6
 22 24  1  0
 24 25  1  6
 26 25  1  1
 26 27  1  0
 27 28  1  0
 28 29  1  6
 28 30  1  0
 30 31  1  0
 31 32  1  0
 32 33  1  1
 31 34  1  1
 34 35  1  0
 34 36  1  0
 24 37  1  0
 37 38  1  6
 37 39  1  0
 37 40  1  0
 40 41  1  0
 41 42  1  6
 41 43  1  0
 41 44  1  0
 44 45  2  0
 44 46  1  0
 46 47  1  1
 46 48  1  0
 48 49  1  1
 48 50  1  0
 50 51  1  6
 50 52  1  0
 50  3  1  0
 21 11  1  0
 32 26  1  0
M  END
$$$$
