
     RDKit          3D

 52 54  0  0  0  0  0  0  0  0999 V2000
  188.9674  161.8567  131.2809 C   0  0  0  0  0  0  0  0  0  0  0  0
  190.3137  161.2460  131.1175 C   0  0  0  0  0  0  0  0  0  0  0  0
  190.4779  160.3736  129.8921 C   0  0  1  0  0  0  0  0  0  0  0  0
  190.1015  161.0085  128.7773 O   0  0  0  0  0  0  0  0  0  0  0  0
  189.1593  161.5835  128.0567 C   0  0  0  0  0  0  0  0  0  0  0  0
  187.9618  161.9111  128.2976 O   0  0  0  0  0  0  0  0  0  0  0  0
  189.5566  161.9399  126.6352 C   0  0  2  0  0  0  0  0  0  0  0  0
  188.9704  163.3005  126.3686 C   0  0  0  0  0  0  0  0  0  0  0  0
  189.0603  160.8699  125.6425 C   0  0  1  0  0  0  0  0  0  0  0  0
  187.9805  161.4479  124.9969 O   0  0  0  0  0  0  0  0  0  0  0  0
  187.7098  160.9797  123.7403 C   0  0  1  0  0  0  0  0  0  0  0  0
  186.2848  160.8709  123.3361 C   0  0  0  0  0  0  0  0  0  0  0  0
  185.5452  162.1316  123.0917 C   0  0  1  0  0  0  0  0  0  0  0  0
  184.5569  161.8136  121.9379 C   0  0  0  0  0  0  0  0  0  0  0  0
  184.7716  162.6018  124.1355 O   0  0  0  0  0  0  0  0  0  0  0  0
  184.1203  163.7696  123.8706 C   0  0  0  0  0  0  0  0  0  0  0  0
  186.4002  163.2563  122.5361 C   0  0  1  0  0  0  0  0  0  0  0  0
  185.7368  164.4650  122.7552 O   0  0  0  0  0  0  0  0  0  0  0  0
  187.7416  163.2076  123.1852 C   0  0  2  0  0  0  0  0  0  0  0  0
  188.6599  164.2624  122.6642 C   0  0  0  0  0  0  0  0  0  0  0  0
  188.2825  161.9509  122.8681 O   0  0  0  0  0  0  0  0  0  0  0  0
  190.1889  160.5212  124.7146 C   0  0  2  0  0  0  0  0  0  0  0  0
  190.3193  161.7294  123.7973 C   0  0  0  0  0  0  0  0  0  0  0  0
  190.1270  159.2859  123.9265 C   0  0  1  0  0  0  0  0  0  0  0  0
  191.3915  159.0137  123.3977 O   0  0  0  0  0  0  0  0  0  0  0  0
  191.5141  158.8421  122.0588 C   0  0  2  0  0  0  0  0  0  0  0  0
  192.3056  157.6862  121.7696 O   0  0  0  0  0  0  0  0  0  0  0  0
  191.7693  157.1659  120.5935 C   0  0  2  0  0  0  0  0  0  0  0  0
  192.5804  156.0110  120.0656 C   0  0  0  0  0  0  0  0  0  0  0  0
  191.7279  158.2437  119.5244 C   0  0  0  0  0  0  0  0  0  0  0  0
  192.5836  159.4201  119.9118 C   0  0  1  0  0  0  0  0  0  0  0  0
  192.1896  159.9332  121.2796 C   0  0  1  0  0  0  0  0  0  0  0  0
  191.3776  161.0515  121.1774 O   0  0  0  0  0  0  0  0  0  0  0  0
  193.9693  158.9651  119.9263 N   0  0  0  0  0  0  0  0  0  0  0  0
  194.8377  159.9772  120.5020 C   0  0  0  0  0  0  0  0  0  0  0  0
  194.3865  158.8003  118.5272 C   0  0  0  0  0  0  0  0  0  0  0  0
  189.7488  158.0067  124.6443 C   0  0  2  0  0  0  0  0  0  0  0  0
  189.3698  157.0216  123.5072 C   0  0  0  0  0  0  0  0  0  0  0  0
  188.5877  158.1766  125.3219 O   0  0  0  0  0  0  0  0  0  0  0  0
  190.8659  157.3601  125.3649 C   0  0  0  0  0  0  0  0  0  0  0  0
  190.7155  157.0352  126.8068 C   0  0  2  0  0  0  0  0  0  0  0  0
  189.9875  155.7853  127.1285 C   0  0  0  0  0  0  0  0  0  0  0  0
  190.1088  158.0995  127.4392 F   0  0  0  0  0  0  0  0  0  0  0  0
  192.0557  156.9461  127.5075 C   0  0  0  0  0  0  0  0  0  0  0  0
  192.5924  155.8324  127.4429 O   0  0  0  0  0  0  0  0  0  0  0  0
  192.6817  158.0976  128.2160 C   0  0  2  0  0  0  0  0  0  0  0  0
  194.1525  157.7277  128.3860 C   0  0  0  0  0  0  0  0  0  0  0  0
  192.0288  158.4402  129.5053 C   0  0  1  0  0  0  0  0  0  0  0  0
  192.8071  157.8779  130.5168 O   0  0  0  0  0  0  0  0  0  0  0  0
  191.9147  159.9243  129.8013 C   0  0  1  0  0  0  0  0  0  0  0  0
  192.7237  160.7495  128.8297 C   0  0  0  0  0  0  0  0  0  0  0  0
  192.4932  160.1819  131.0679 O   0  0  0  0  0  0  0  0  0  0  0  0
  1  2  1  0
  3  2  1  1
  3  4  1  0
  4  5  1  0
  5  6  2  0
  5  7  1  0
  7  8  1  6
  7  9  1  0
  9 10  1  6
 11 10  1  1
 11 12  1  0
 12 13  1  0
 13 14  1  6
 13 15  1  0
 15 16  1  0
 13 17  1  0
 17 18  1  1
 17 19  1  0
 19 20  1  6
 19 21  1  0
  9 22  1  0
 22 23  1  6
 22 24  1  0
 24 25  1  1
 26 25  1  1
 26 27  1  0
 27 28  1  0
 28 29  1  6
 28 30  1  0
 30 31  1  0
 31 32  1  0
 32 33  1  6
 31 34  1  1
 34 35  1  0
 34 36  1  0
 24 37  1  0
 37 38  1  6
 37 39  1  0
 37 40  1  0
 40 41  1  0
 41 42  1  6
 41 43  1  0
 41 44  1  0
 44 45  2  0
 44 46  1  0
 46 47  1  1
 46 48  1  0
 48 49  1  1
 48 50  1  0
 50 51  1  6
 50 52  1  0
 50  3  1  0
 21 11  1  0
 32 26  1  0
M  END
$$$$
