
     RDKit          3D

 52 54  0  0  0  0  0  0  0  0999 V2000
  199.9929  135.3402  134.8554 C   0  0  0  0  0  0  0  0  0  0  0  0
  201.1402  135.9609  134.1410 C   0  0  0  0  0  0  0  0  0  0  0  0
  202.4436  135.1983  134.2364 C   0  0  1  0  0  0  0  0  0  0  0  0
  202.3153  133.9406  133.8015 O   0  0  0  0  0  0  0  0  0  0  0  0
  201.7793  132.7424  133.9228 C   0  0  0  0  0  0  0  0  0  0  0  0
  200.8560  132.2750  134.6499 O   0  0  0  0  0  0  0  0  0  0  0  0
  202.3682  131.6739  133.0188 C   0  0  2  0  0  0  0  0  0  0  0  0
  201.2012  130.8702  132.5107 C   0  0  0  0  0  0  0  0  0  0  0  0
  203.3978  130.8167  133.7817 C   0  0  1  0  0  0  0  0  0  0  0  0
  202.7593  129.6119  134.0216 O   0  0  0  0  0  0  0  0  0  0  0  0
  202.7411  129.1893  135.3226 C   0  0  1  0  0  0  0  0  0  0  0  0
  201.5230  128.4891  135.8041 C   0  0  0  0  0  0  0  0  0  0  0  0
  201.2735  127.1208  135.2924 C   0  0  1  0  0  0  0  0  0  0  0  0
  200.6116  126.3543  136.4687 C   0  0  0  0  0  0  0  0  0  0  0  0
  200.3982  127.0134  134.2288 O   0  0  0  0  0  0  0  0  0  0  0  0
  199.3245  127.8504  134.2979 C   0  0  0  0  0  0  0  0  0  0  0  0
  202.5339  126.3249  135.0055 C   0  0  1  0  0  0  0  0  0  0  0  0
  202.2059  125.2714  134.1501 O   0  0  0  0  0  0  0  0  0  0  0  0
  203.5605  127.2394  134.4285 C   0  0  2  0  0  0  0  0  0  0  0  0
  204.8491  126.5393  134.1516 C   0  0  0  0  0  0  0  0  0  0  0  0
  203.7910  128.2281  135.3988 O   0  0  0  0  0  0  0  0  0  0  0  0
  204.6266  130.6775  132.9291 C   0  0  2  0  0  0  0  0  0  0  0  0
  204.2172  129.7192  131.8189 C   0  0  0  0  0  0  0  0  0  0  0  0
  205.8888  130.2447  133.5378 C   0  0  1  0  0  0  0  0  0  0  0  0
  206.9373  130.4924  132.6480 O   0  0  0  0  0  0  0  0  0  0  0  0
  207.5600  129.4385  132.0659 C   0  0  2  0  0  0  0  0  0  0  0  0
  208.9760  129.5267  132.2482 O   0  0  0  0  0  0  0  0  0  0  0  0
  209.4094  128.2068  132.3558 C   0  0  2  0  0  0  0  0  0  0  0  0
  210.9120  128.1089  132.4146 C   0  0  0  0  0  0  0  0  0  0  0  0
  208.9290  127.4068  131.1578 C   0  0  0  0  0  0  0  0  0  0  0  0
  208.4528  128.3173  130.0576 C   0  0  1  0  0  0  0  0  0  0  0  0
  207.4072  129.2776  130.5811 C   0  0  1  0  0  0  0  0  0  0  0  0
  206.1302  128.8511  130.2527 O   0  0  0  0  0  0  0  0  0  0  0  0
  209.6126  129.0551  129.5699 N   0  0  0  0  0  0  0  0  0  0  0  0
  210.4706  129.4533  130.6721 C   0  0  0  0  0  0  0  0  0  0  0  0
  209.1128  130.2939  128.9580 C   0  0  0  0  0  0  0  0  0  0  0  0
  206.3275  130.9261  134.8174 C   0  0  2  0  0  0  0  0  0  0  0  0
  207.4171  129.9888  135.4019 C   0  0  0  0  0  0  0  0  0  0  0  0
  205.3343  130.8766  135.7378 O   0  0  0  0  0  0  0  0  0  0  0  0
  206.9996  132.2271  134.6147 C   0  0  0  0  0  0  0  0  0  0  0  0
  206.4944  133.4300  135.3253 C   0  0  2  0  0  0  0  0  0  0  0  0
  206.9319  133.5974  136.7311 C   0  0  0  0  0  0  0  0  0  0  0  0
  205.1169  133.4327  135.2664 F   0  0  0  0  0  0  0  0  0  0  0  0
  206.8652  134.7089  134.6031 C   0  0  0  0  0  0  0  0  0  0  0  0
  207.9799  135.1580  134.9001 O   0  0  0  0  0  0  0  0  0  0  0  0
  205.9695  135.3755  133.6166 C   0  0  2  0  0  0  0  0  0  0  0  0
  206.8605  136.3337  132.8312 C   0  0  0  0  0  0  0  0  0  0  0  0
  204.8004  136.0580  134.2277 C   0  0  1  0  0  0  0  0  0  0  0  0
  205.1130  137.4154  134.2971 O   0  0  0  0  0  0  0  0  0  0  0  0
  203.5004  135.9372  133.4541 C   0  0  1  0  0  0  0  0  0  0  0  0
  203.7229  135.3543  132.0793 C   0  0  0  0  0  0  0  0  0  0  0  0
  202.9871  137.2362  133.2203 O   0  0  0  0  0  0  0  0  0  0  0  0
  1  2  1  0
  3  2  1  6
  3  4  1  0
  4  5  1  0
  5  6  2  0
  5  7  1  0
  7  8  1  1
  7  9  1  0
  9 10  1  6
 11 10  1  6
 11 12  1  0
 12 13  1  0
 13 14  1  1
 13 15  1  0
 15 16  1  0
 13 17  1  0
 17 18  1  6
 17 19  1  0
 19 20  1  1
 19 21  1  0
  9 22  1  0
 22 23  1  6
 22 24  1  0
 24 25  1  6
 26 25  1  6
 26 27  1  0
 27 28  1  0
 28 29  1  6
 28 30  1  0
 30 31  1  0
 31 32  1  0
 32 33  1  1
 31 34  1  1
 34 35  1  0
 34 36  1  0
 24 37  1  0
 37 38  1  1
 37 39  1  0
 37 40  1  0
 40 41  1  0
 41 42  1  1
 41 43  1  0
 41 44  1  0
 44 45  2  0
 44 46  1  0
 46 47  1  1
 46 48  1  0
 48 49  1  6
 48 50  1  0
 50 51  1  6
 50 52  1  0
 50  3  1  0
 21 11  1  0
 32 26  1  0
M  END
$$$$
