
     RDKit          3D

 31 36  0  0  0  0  0  0  0  0999 V2000
  112.9418  146.9452  155.7036 C   0  0  1  0  0  0  0  0  0  0  0  0
  114.4372  146.5916  155.6812 C   0  0  0  0  0  0  0  0  0  0  0  0
  114.7590  146.4972  157.1237 C   0  0  1  0  0  0  0  0  0  0  0  0
  116.1906  146.5636  157.4943 C   0  0  2  0  0  0  0  0  0  0  0  0
  116.8581  145.2962  157.0145 C   0  0  0  0  0  0  0  0  0  0  0  0
  118.2579  145.2925  157.5069 C   0  0  0  0  0  0  0  0  0  0  0  0
  118.6142  145.8758  158.6355 C   0  0  0  0  0  0  0  0  0  0  0  0
  120.0450  145.8144  159.0402 C   0  0  0  0  0  0  0  0  0  0  0  0
  120.0929  145.1669  160.4040 C   0  0  1  0  0  0  0  0  0  0  0  0
  120.6842  145.9681  161.3660 O   0  0  0  0  0  0  0  0  0  0  0  0
  118.7261  144.7672  160.8932 C   0  0  0  0  0  0  0  0  0  0  0  0
  117.7439  145.9080  160.8922 C   0  0  1  0  0  0  0  0  0  0  0  0
  117.9950  146.8218  161.9111 O   0  0  0  0  0  0  0  0  0  0  0  0
  117.6678  146.5921  159.5283 C   0  0  1  0  0  0  0  0  0  0  0  0
  118.1822  147.9981  159.7279 C   0  0  0  0  0  0  0  0  0  0  0  0
  116.2594  146.5617  159.0197 C   0  0  1  0  0  0  0  0  0  0  0  0
  115.4372  147.6898  159.6141 C   0  0  0  0  0  0  0  0  0  0  0  0
  113.9991  147.5844  159.1902 C   0  0  0  0  0  0  0  0  0  0  0  0
  113.9330  147.6476  157.7075 C   0  0  1  0  0  0  0  0  0  0  0  0
  114.4790  148.9501  157.1949 C   0  0  0  0  0  0  0  0  0  0  0  0
  112.6035  147.2934  157.1152 C   0  0  1  0  0  0  0  0  0  0  0  0
  111.6462  148.4136  156.9929 C   0  0  2  0  0  0  0  0  0  0  0  0
  110.3283  147.9300  157.5620 C   0  0  0  0  0  0  0  0  0  0  0  0
  111.5635  148.7074  155.5101 C   0  0  2  0  0  0  0  0  0  0  0  0
  111.8592  150.1707  155.2897 C   0  0  0  0  0  0  0  0  0  0  0  0
  110.7150  150.9194  154.6582 C   0  0  0  0  0  0  0  0  0  0  0  0
  109.4482  150.4172  155.3181 C   0  0  1  0  0  0  0  0  0  0  0  0
  108.2625  151.1956  154.7556 C   0  0  0  0  0  0  0  0  0  0  0  0
  109.3018  148.9749  154.9820 C   0  0  0  0  0  0  0  0  0  0  0  0
  110.4379  148.2461  154.9073 O   0  0  0  0  0  0  0  0  0  0  0  0
  112.6535  148.0197  154.9236 O   0  0  0  0  0  0  0  0  0  0  0  0
  1  2  1  1
  3  2  1  6
  3  4  1  0
  4  5  1  6
  5  6  1  0
  6  7  2  0
  7  8  1  0
  8  9  1  0
  9 10  1  1
  9 11  1  0
 11 12  1  0
 12 13  1  1
 12 14  1  0
 14 15  1  1
 14 16  1  0
 16 17  1  1
 17 18  1  0
 18 19  1  0
 19 20  1  6
 19 21  1  0
 21 22  1  0
 22 23  1  6
 22 24  1  0
 24 25  1  1
 25 26  1  0
 26 27  1  0
 27 28  1  6
 27 29  1  0
 29 30  1  0
 24 31  1  0
 21  1  1  6
 30 24  1  0
 31  1  1  0
 19  3  1  0
 16  4  1  0
 14  7  1  0
M  END
$$$$
