
     RDKit          3D

 31 36  0  0  0  0  0  0  0  0999 V2000
  109.1361  165.0516  158.8156 C   0  0  1  0  0  0  0  0  0  0  0  0
  108.5608  166.4740  158.9034 C   0  0  0  0  0  0  0  0  0  0  0  0
  107.1021  166.2208  158.9386 C   0  0  1  0  0  0  0  0  0  0  0  0
  106.2179  167.3654  158.6236 C   0  0  2  0  0  0  0  0  0  0  0  0
  106.3176  168.3602  159.7560 C   0  0  0  0  0  0  0  0  0  0  0  0
  105.3285  169.4399  159.5154 C   0  0  0  0  0  0  0  0  0  0  0  0
  104.1925  169.2316  158.8776 C   0  0  0  0  0  0  0  0  0  0  0  0
  103.2684  170.3827  158.6884 C   0  0  0  0  0  0  0  0  0  0  0  0
  101.9488  170.0000  159.3161 C   0  0  1  0  0  0  0  0  0  0  0  0
  100.8913  170.0349  158.4229 O   0  0  0  0  0  0  0  0  0  0  0  0
  101.9930  168.6336  159.9469 C   0  0  0  0  0  0  0  0  0  0  0  0
  102.4478  167.5602  158.9945 C   0  0  1  0  0  0  0  0  0  0  0  0
  101.4758  167.2462  158.0497 O   0  0  0  0  0  0  0  0  0  0  0  0
  103.7808  167.9114  158.3358 C   0  0  1  0  0  0  0  0  0  0  0  0
  103.4969  168.0759  156.8615 C   0  0  0  0  0  0  0  0  0  0  0  0
  104.7858  166.8357  158.6116 C   0  0  1  0  0  0  0  0  0  0  0  0
  104.6299  165.6783  157.6430 C   0  0  0  0  0  0  0  0  0  0  0  0
  105.5630  164.5547  157.9977 C   0  0  0  0  0  0  0  0  0  0  0  0
  106.9589  165.0604  157.9489 C   0  0  1  0  0  0  0  0  0  0  0  0
  107.3121  165.5468  156.5718 C   0  0  0  0  0  0  0  0  0  0  0  0
  107.9886  164.1406  158.5298 C   0  0  1  0  0  0  0  0  0  0  0  0
  108.5443  163.1402  157.5935 C   0  0  2  0  0  0  0  0  0  0  0  0
  108.4904  161.8005  158.2984 C   0  0  0  0  0  0  0  0  0  0  0  0
  109.9624  163.5941  157.3204 C   0  0  2  0  0  0  0  0  0  0  0  0
  110.1531  163.7141  155.8283 C   0  0  0  0  0  0  0  0  0  0  0  0
  111.2238  162.8013  155.2910 C   0  0  0  0  0  0  0  0  0  0  0  0
  111.0655  161.4756  156.0051 C   0  0  1  0  0  0  0  0  0  0  0  0
  112.0907  160.4936  155.4457 C   0  0  0  0  0  0  0  0  0  0  0  0
  111.3320  161.7039  157.4513 C   0  0  0  0  0  0  0  0  0  0  0  0
  110.9164  162.8805  157.9714 O   0  0  0  0  0  0  0  0  0  0  0  0
  110.0389  164.9211  157.8086 O   0  0  0  0  0  0  0  0  0  0  0  0
  1  2  1  6
  3  2  1  6
  3  4  1  0
  4  5  1  1
  5  6  1  0
  6  7  2  0
  7  8  1  0
  8  9  1  0
  9 10  1  6
  9 11  1  0
 11 12  1  0
 12 13  1  6
 12 14  1  0
 14 15  1  6
 14 16  1  0
 16 17  1  6
 17 18  1  0
 18 19  1  0
 19 20  1  6
 19 21  1  0
 21 22  1  0
 22 23  1  1
 22 24  1  0
 24 25  1  6
 25 26  1  0
 26 27  1  0
 27 28  1  6
 27 29  1  0
 29 30  1  0
 24 31  1  0
 21  1  1  6
 30 24  1  0
 31  1  1  0
 19  3  1  0
 16  4  1  0
 14  7  1  0
M  END
$$$$
