
     RDKit          3D

 31 36  0  0  0  0  0  0  0  0999 V2000
  196.1965  164.0248  130.5535 C   0  0  1  0  0  0  0  0  0  0  0  0
  195.3145  163.1478  131.4562 C   0  0  0  0  0  0  0  0  0  0  0  0
  193.9666  163.7164  131.2259 C   0  0  1  0  0  0  0  0  0  0  0  0
  192.9236  163.3872  132.2232 C   0  0  2  0  0  0  0  0  0  0  0  0
  192.5927  161.9194  132.0882 C   0  0  0  0  0  0  0  0  0  0  0  0
  191.4500  161.6156  132.9847 C   0  0  0  0  0  0  0  0  0  0  0  0
  190.5239  162.5076  133.2803 C   0  0  0  0  0  0  0  0  0  0  0  0
  189.4182  162.1017  134.1899 C   0  0  0  0  0  0  0  0  0  0  0  0
  188.1244  162.3268  133.4436 C   0  0  1  0  0  0  0  0  0  0  0  0
  187.2662  163.1978  134.0933 O   0  0  0  0  0  0  0  0  0  0  0  0
  188.3543  162.8400  132.0469 C   0  0  0  0  0  0  0  0  0  0  0  0
  189.2010  164.0840  132.0088 C   0  0  1  0  0  0  0  0  0  0  0  0
  188.5113  165.2060  132.4579 O   0  0  0  0  0  0  0  0  0  0  0  0
  190.5203  163.8975  132.7564 C   0  0  1  0  0  0  0  0  0  0  0  0
  190.4804  164.8435  133.9331 C   0  0  0  0  0  0  0  0  0  0  0  0
  191.6709  164.1706  131.8374 C   0  0  1  0  0  0  0  0  0  0  0  0
  191.9542  165.6581  131.7405 C   0  0  0  0  0  0  0  0  0  0  0  0
  193.0322  165.9325  130.7299 C   0  0  0  0  0  0  0  0  0  0  0  0
  194.2665  165.2163  131.1426 C   0  0  1  0  0  0  0  0  0  0  0  0
  194.7480  165.6932  132.4836 C   0  0  0  0  0  0  0  0  0  0  0  0
  195.3508  165.1721  130.1100 C   0  0  1  0  0  0  0  0  0  0  0  0
  196.2751  166.3262  130.1127 C   0  0  2  0  0  0  0  0  0  0  0  0
  196.3916  166.7998  128.6786 C   0  0  0  0  0  0  0  0  0  0  0  0
  197.5830  165.7884  130.6528 C   0  0  2  0  0  0  0  0  0  0  0  0
  198.0109  166.6414  131.8219 C   0  0  0  0  0  0  0  0  0  0  0  0
  199.3365  167.3229  131.6062 C   0  0  0  0  0  0  0  0  0  0  0  0
  199.3482  167.8104  130.1728 C   0  0  1  0  0  0  0  0  0  0  0  0
  200.6496  168.5674  129.9246 C   0  0  0  0  0  0  0  0  0  0  0  0
  199.2897  166.6165  129.2863 C   0  0  0  0  0  0  0  0  0  0  0  0
  198.5364  165.5769  129.7098 O   0  0  0  0  0  0  0  0  0  0  0  0
  197.2737  164.5253  131.2133 O   0  0  0  0  0  0  0  0  0  0  0  0
  1  2  1  1
  3  2  1  1
  3  4  1  0
  4  5  1  6
  5  6  1  0
  6  7  2  0
  7  8  1  0
  8  9  1  0
  9 10  1  1
  9 11  1  0
 11 12  1  0
 12 13  1  1
 12 14  1  0
 14 15  1  1
 14 16  1  0
 16 17  1  1
 17 18  1  0
 18 19  1  0
 19 20  1  1
 19 21  1  0
 21 22  1  0
 22 23  1  6
 22 24  1  0
 24 25  1  1
 25 26  1  0
 26 27  1  0
 27 28  1  6
 27 29  1  0
 29 30  1  0
 24 31  1  0
 21  1  1  1
 30 24  1  0
 31  1  1  0
 19  3  1  0
 16  4  1  0
 14  7  1  0
M  END
$$$$
