
     RDKit          3D

 31 36  0  0  0  0  0  0  0  0999 V2000
  165.7959  153.6090  125.1531 C   0  0  1  0  0  0  0  0  0  0  0  0
  166.7191  152.4930  125.6671 C   0  0  0  0  0  0  0  0  0  0  0  0
  166.1106  152.1602  126.9756 C   0  0  1  0  0  0  0  0  0  0  0  0
  166.9537  151.4084  127.9322 C   0  0  2  0  0  0  0  0  0  0  0  0
  167.1434  150.0106  127.3917 C   0  0  0  0  0  0  0  0  0  0  0  0
  167.8661  149.2113  128.4118 C   0  0  0  0  0  0  0  0  0  0  0  0
  167.7499  149.4412  129.7058 C   0  0  0  0  0  0  0  0  0  0  0  0
  168.5182  148.5815  130.6468 C   0  0  0  0  0  0  0  0  0  0  0  0
  167.5180  147.9425  131.5812 C   0  0  1  0  0  0  0  0  0  0  0  0
  167.7556  148.2337  132.9138 O   0  0  0  0  0  0  0  0  0  0  0  0
  166.1016  148.3350  131.2544 C   0  0  0  0  0  0  0  0  0  0  0  0
  165.8984  149.8260  131.2142 C   0  0  1  0  0  0  0  0  0  0  0  0
  165.9115  150.3951  132.4839 O   0  0  0  0  0  0  0  0  0  0  0  0
  166.8944  150.5110  130.2799 C   0  0  1  0  0  0  0  0  0  0  0  0
  167.7609  151.3893  131.1512 C   0  0  0  0  0  0  0  0  0  0  0  0
  166.1596  151.2874  129.2309 C   0  0  1  0  0  0  0  0  0  0  0  0
  165.7362  152.6481  129.7517 C   0  0  0  0  0  0  0  0  0  0  0  0
  164.9009  153.3739  128.7345 C   0  0  0  0  0  0  0  0  0  0  0  0
  165.6999  153.5421  127.4936 C   0  0  1  0  0  0  0  0  0  0  0  0
  166.9372  154.3548  127.7507 C   0  0  0  0  0  0  0  0  0  0  0  0
  164.9268  154.0098  126.2988 C   0  0  1  0  0  0  0  0  0  0  0  0
  164.7995  155.4765  126.1615 C   0  0  2  0  0  0  0  0  0  0  0  0
  163.3373  155.7679  125.8938 C   0  0  0  0  0  0  0  0  0  0  0  0
  165.6869  155.8461  124.9921 C   0  0  2  0  0  0  0  0  0  0  0  0
  166.6546  156.9148  125.4379 C   0  0  0  0  0  0  0  0  0  0  0  0
  166.5140  158.2019  124.6683 C   0  0  0  0  0  0  0  0  0  0  0  0
  165.0299  158.4448  124.4922 C   0  0  1  0  0  0  0  0  0  0  0  0
  164.8347  159.7758  123.7720 C   0  0  0  0  0  0  0  0  0  0  0  0
  164.4850  157.3412  123.6558 C   0  0  0  0  0  0  0  0  0  0  0  0
  165.0183  156.1129  123.8410 O   0  0  0  0  0  0  0  0  0  0  0  0
  166.4880  154.7048  124.7453 O   0  0  0  0  0  0  0  0  0  0  0  0
  1  2  1  1
  3  2  1  6
  3  4  1  0
  4  5  1  6
  5  6  1  0
  6  7  2  0
  7  8  1  0
  8  9  1  0
  9 10  1  1
  9 11  1  0
 11 12  1  0
 12 13  1  1
 12 14  1  0
 14 15  1  1
 14 16  1  0
 16 17  1  1
 17 18  1  0
 18 19  1  0
 19 20  1  1
 19 21  1  0
 21 22  1  0
 22 23  1  6
 22 24  1  0
 24 25  1  1
 25 26  1  0
 26 27  1  0
 27 28  1  6
 27 29  1  0
 29 30  1  0
 24 31  1  0
 21  1  1  6
 30 24  1  0
 31  1  1  0
 19  3  1  0
 16  4  1  0
 14  7  1  0
M  END
$$$$
