
     RDKit          3D

 31 36  0  0  0  0  0  0  0  0999 V2000
  188.3591  133.3289  127.5641 C   0  0  1  0  0  0  0  0  0  0  0  0
  188.3256  134.7377  128.1774 C   0  0  0  0  0  0  0  0  0  0  0  0
  188.9738  135.5536  127.1251 C   0  0  1  0  0  0  0  0  0  0  0  0
  189.4739  136.8874  127.5275 C   0  0  2  0  0  0  0  0  0  0  0  0
  188.2807  137.7681  127.8151 C   0  0  0  0  0  0  0  0  0  0  0  0
  188.7707  139.1435  128.0799 C   0  0  0  0  0  0  0  0  0  0  0  0
  189.8664  139.6252  127.5249 C   0  0  0  0  0  0  0  0  0  0  0  0
  190.2716  141.0182  127.8567 C   0  0  0  0  0  0  0  0  0  0  0  0
  190.3529  141.7788  126.5542 C   0  0  1  0  0  0  0  0  0  0  0  0
  191.6044  142.3224  126.3190 O   0  0  0  0  0  0  0  0  0  0  0  0
  189.9755  140.9261  125.3721 C   0  0  0  0  0  0  0  0  0  0  0  0
  190.7766  139.6547  125.2839 C   0  0  1  0  0  0  0  0  0  0  0  0
  192.0876  139.8838  124.8777 O   0  0  0  0  0  0  0  0  0  0  0  0
  190.7216  138.8560  126.5851 C   0  0  1  0  0  0  0  0  0  0  0  0
  192.1283  138.8403  127.1348 C   0  0  0  0  0  0  0  0  0  0  0  0
  190.1929  137.4804  126.3179 C   0  0  1  0  0  0  0  0  0  0  0  0
  191.2896  136.5592  125.8172 C   0  0  0  0  0  0  0  0  0  0  0  0
  190.7297  135.2158  125.4420 C   0  0  0  0  0  0  0  0  0  0  0  0
  190.0841  134.6171  126.6384 C   0  0  1  0  0  0  0  0  0  0  0  0
  191.0768  134.4184  127.7486 C   0  0  0  0  0  0  0  0  0  0  0  0
  189.2513  133.4013  126.3694 C   0  0  1  0  0  0  0  0  0  0  0  0
  189.9831  132.1166  126.3851 C   0  0  2  0  0  0  0  0  0  0  0  0
  189.5793  131.3652  125.1333 C   0  0  0  0  0  0  0  0  0  0  0  0
  189.5339  131.4171  127.6502 C   0  0  2  0  0  0  0  0  0  0  0  0
  190.7540  131.0453  128.4568 C   0  0  0  0  0  0  0  0  0  0  0  0
  190.8926  129.5615  128.6743 C   0  0  0  0  0  0  0  0  0  0  0  0
  190.5246  128.8927  127.3667 C   0  0  1  0  0  0  0  0  0  0  0  0
  190.7131  127.3861  127.5183 C   0  0  0  0  0  0  0  0  0  0  0  0
  189.0928  129.1903  127.0914 C   0  0  0  0  0  0  0  0  0  0  0  0
  188.6422  130.4130  127.4514 O   0  0  0  0  0  0  0  0  0  0  0  0
  188.8728  132.4059  128.4186 O   0  0  0  0  0  0  0  0  0  0  0  0
  1  2  1  1
  3  2  1  1
  3  4  1  0
  4  5  1  6
  5  6  1  0
  6  7  2  0
  7  8  1  0
  8  9  1  0
  9 10  1  6
  9 11  1  0
 11 12  1  0
 12 13  1  1
 12 14  1  0
 14 15  1  1
 14 16  1  0
 16 17  1  1
 17 18  1  0
 18 19  1  0
 19 20  1  1
 19 21  1  0
 21 22  1  0
 22 23  1  6
 22 24  1  0
 24 25  1  1
 25 26  1  0
 26 27  1  0
 27 28  1  1
 27 29  1  0
 29 30  1  0
 24 31  1  0
 21  1  1  1
 30 24  1  0
 31  1  1  0
 19  3  1  0
 16  4  1  0
 14  7  1  0
M  END
$$$$
