
     RDKit          3D

 31 36  0  0  0  0  0  0  0  0999 V2000
  204.6515  131.2910  135.0752 C   0  0  1  0  0  0  0  0  0  0  0  0
  205.1953  132.6897  134.7440 C   0  0  0  0  0  0  0  0  0  0  0  0
  204.0076  133.3597  134.1665 C   0  0  1  0  0  0  0  0  0  0  0  0
  204.2521  134.5842  133.3716 C   0  0  2  0  0  0  0  0  0  0  0  0
  204.7079  135.6722  134.3153 C   0  0  0  0  0  0  0  0  0  0  0  0
  204.8172  136.9378  133.5483 C   0  0  0  0  0  0  0  0  0  0  0  0
  204.0532  137.2035  132.5059 C   0  0  0  0  0  0  0  0  0  0  0  0
  204.2426  138.5027  131.8053 C   0  0  0  0  0  0  0  0  0  0  0  0
  202.9131  139.2191  131.8318 C   0  0  1  0  0  0  0  0  0  0  0  0
  202.4327  139.5211  130.5688 O   0  0  0  0  0  0  0  0  0  0  0  0
  201.8581  138.4351  132.5664 C   0  0  0  0  0  0  0  0  0  0  0  0
  201.6864  137.0374  132.0344 C   0  0  1  0  0  0  0  0  0  0  0  0
  201.0419  137.0173  130.8014 O   0  0  0  0  0  0  0  0  0  0  0  0
  203.0118  136.2789  131.9895 C   0  0  1  0  0  0  0  0  0  0  0  0
  203.3008  136.0126  130.5311 C   0  0  0  0  0  0  0  0  0  0  0  0
  202.9073  135.0201  132.7944 C   0  0  1  0  0  0  0  0  0  0  0  0
  202.2610  133.9073  131.9906 C   0  0  0  0  0  0  0  0  0  0  0  0
  202.0545  132.6846  132.8398 C   0  0  0  0  0  0  0  0  0  0  0  0
  203.3735  132.2295  133.3496 C   0  0  1  0  0  0  0  0  0  0  0  0
  204.2958  131.8663  132.2205 C   0  0  0  0  0  0  0  0  0  0  0  0
  203.3142  131.1836  134.4204 C   0  0  1  0  0  0  0  0  0  0  0  0
  203.2576  129.7869  133.9386 C   0  0  2  0  0  0  0  0  0  0  0  0
  202.1343  129.1065  134.6935 C   0  0  0  0  0  0  0  0  0  0  0  0
  204.6136  129.1976  134.2637 C   0  0  2  0  0  0  0  0  0  0  0  0
  205.2047  128.6187  133.0016 C   0  0  0  0  0  0  0  0  0  0  0  0
  205.4620  127.1374  133.0913 C   0  0  0  0  0  0  0  0  0  0  0  0
  204.2737  126.5309  133.8073 C   0  0  1  0  0  0  0  0  0  0  0  0
  204.4582  125.0174  133.8650 C   0  0  0  0  0  0  0  0  0  0  0  0
  204.2459  127.0824  135.1892 C   0  0  0  0  0  0  0  0  0  0  0  0
  204.6242  128.3714  135.3409 O   0  0  0  0  0  0  0  0  0  0  0  0
  205.4417  130.3004  134.5851 O   0  0  0  0  0  0  0  0  0  0  0  0
  1  2  1  6
  3  2  1  6
  3  4  1  0
  4  5  1  1
  5  6  1  0
  6  7  2  0
  7  8  1  0
  8  9  1  0
  9 10  1  6
  9 11  1  0
 11 12  1  0
 12 13  1  6
 12 14  1  0
 14 15  1  6
 14 16  1  0
 16 17  1  6
 17 18  1  0
 18 19  1  0
 19 20  1  6
 19 21  1  0
 21 22  1  0
 22 23  1  1
 22 24  1  0
 24 25  1  6
 25 26  1  0
 26 27  1  0
 27 28  1  1
 27 29  1  0
 29 30  1  0
 24 31  1  0
 21  1  1  1
 30 24  1  0
 31  1  1  0
 19  3  1  0
 16  4  1  0
 14  7  1  0
M  END
$$$$
