
     RDKit          3D

 31 36  0  0  0  0  0  0  0  0999 V2000
  204.6108  131.7608  134.7516 C   0  0  1  0  0  0  0  0  0  0  0  0
  205.7361  132.0911  133.7584 C   0  0  0  0  0  0  0  0  0  0  0  0
  206.8311  132.5230  134.6571 C   0  0  1  0  0  0  0  0  0  0  0  0
  207.9365  133.2914  134.0415 C   0  0  2  0  0  0  0  0  0  0  0  0
  208.7144  132.3569  133.1450 C   0  0  0  0  0  0  0  0  0  0  0  0
  209.9050  133.0827  132.6375 C   0  0  0  0  0  0  0  0  0  0  0  0
  210.5036  134.0339  133.3286 C   0  0  0  0  0  0  0  0  0  0  0  0
  211.6915  134.7003  132.7292 C   0  0  0  0  0  0  0  0  0  0  0  0
  212.8382  134.5158  133.6951 C   0  0  1  0  0  0  0  0  0  0  0  0
  213.3832  135.7130  134.1273 O   0  0  0  0  0  0  0  0  0  0  0  0
  212.4408  133.7109  134.9039 C   0  0  0  0  0  0  0  0  0  0  0  0
  211.2427  134.2756  135.6192 C   0  0  1  0  0  0  0  0  0  0  0  0
  211.5459  135.4389  136.3198 O   0  0  0  0  0  0  0  0  0  0  0  0
  210.0597  134.4796  134.6742 C   0  0  1  0  0  0  0  0  0  0  0  0
  209.8113  135.9684  134.6182 C   0  0  0  0  0  0  0  0  0  0  0  0
  208.8711  133.7163  135.1719 C   0  0  1  0  0  0  0  0  0  0  0  0
  208.1294  134.4939  136.2430 C   0  0  0  0  0  0  0  0  0  0  0  0
  207.0081  133.6751  136.8185 C   0  0  0  0  0  0  0  0  0  0  0  0
  206.0698  133.3154  135.7244 C   0  0  1  0  0  0  0  0  0  0  0  0
  205.4777  134.5428  135.0917 C   0  0  0  0  0  0  0  0  0  0  0  0
  205.0435  132.2842  136.0810 C   0  0  1  0  0  0  0  0  0  0  0  0
  203.8008  132.8103  136.6854 C   0  0  2  0  0  0  0  0  0  0  0  0
  203.5231  131.9745  137.9178 C   0  0  0  0  0  0  0  0  0  0  0  0
  202.7376  132.6429  135.6208 C   0  0  2  0  0  0  0  0  0  0  0  0
  202.0750  133.9780  135.3847 C   0  0  0  0  0  0  0  0  0  0  0  0
  200.5992  133.9701  135.6849 C   0  0  0  0  0  0  0  0  0  0  0  0
  200.4165  133.1638  136.9534 C   0  0  1  0  0  0  0  0  0  0  0  0
  198.9393  133.1816  137.3353 C   0  0  0  0  0  0  0  0  0  0  0  0
  200.8404  131.7661  136.6683 C   0  0  0  0  0  0  0  0  0  0  0  0
  201.8896  131.6039  135.8314 O   0  0  0  0  0  0  0  0  0  0  0  0
  203.4384  132.3634  134.4225 O   0  0  0  0  0  0  0  0  0  0  0  0
  1  2  1  6
  3  2  1  6
  3  4  1  0
  4  5  1  6
  5  6  1  0
  6  7  2  0
  7  8  1  0
  8  9  1  0
  9 10  1  1
  9 11  1  0
 11 12  1  0
 12 13  1  6
 12 14  1  0
 14 15  1  6
 14 16  1  0
 16 17  1  1
 17 18  1  0
 18 19  1  0
 19 20  1  6
 19 21  1  0
 21 22  1  0
 22 23  1  1
 22 24  1  0
 24 25  1  6
 25 26  1  0
 26 27  1  0
 27 28  1  6
 27 29  1  0
 29 30  1  0
 24 31  1  0
 21  1  1  6
 30 24  1  0
 31  1  1  0
 19  3  1  0
 16  4  1  0
 14  7  1  0
M  END
$$$$
