
     RDKit          3D

 31 36  0  0  0  0  0  0  0  0999 V2000
  182.7668  144.5311  123.3704 C   0  0  1  0  0  0  0  0  0  0  0  0
  183.5552  144.5715  124.6889 C   0  0  0  0  0  0  0  0  0  0  0  0
  183.0919  143.3405  125.3695 C   0  0  1  0  0  0  0  0  0  0  0  0
  183.3336  143.2520  126.8272 C   0  0  2  0  0  0  0  0  0  0  0  0
  184.8208  143.1046  127.0475 C   0  0  0  0  0  0  0  0  0  0  0  0
  185.0561  142.8726  128.4941 C   0  0  0  0  0  0  0  0  0  0  0  0
  184.1797  142.2581  129.2655 C   0  0  0  0  0  0  0  0  0  0  0  0
  184.5124  142.0755  130.7045 C   0  0  0  0  0  0  0  0  0  0  0  0
  184.4567  140.5929  130.9881 C   0  0  1  0  0  0  0  0  0  0  0  0
  183.5493  140.2626  131.9803 O   0  0  0  0  0  0  0  0  0  0  0  0
  184.1286  139.7895  129.7576 C   0  0  0  0  0  0  0  0  0  0  0  0
  182.8605  140.2388  129.0822 C   0  0  1  0  0  0  0  0  0  0  0  0
  181.7237  139.8717  129.7958 O   0  0  0  0  0  0  0  0  0  0  0  0
  182.8765  141.7363  128.7801 C   0  0  1  0  0  0  0  0  0  0  0  0
  181.7816  142.3517  129.6190 C   0  0  0  0  0  0  0  0  0  0  0  0
  182.6742  141.9635  127.3136 C   0  0  1  0  0  0  0  0  0  0  0  0
  181.2017  141.9219  126.9504 C   0  0  0  0  0  0  0  0  0  0  0  0
  181.0142  142.0349  125.4634 C   0  0  0  0  0  0  0  0  0  0  0  0
  181.6043  143.3186  125.0044 C   0  0  1  0  0  0  0  0  0  0  0  0
  180.9249  144.4911  125.6535 C   0  0  0  0  0  0  0  0  0  0  0  0
  181.7348  143.4628  123.5191 C   0  0  1  0  0  0  0  0  0  0  0  0
  180.5462  144.0082  122.8291 C   0  0  2  0  0  0  0  0  0  0  0  0
  180.2681  143.1008  121.6486 C   0  0  0  0  0  0  0  0  0  0  0  0
  180.9387  145.4071  122.4042 C   0  0  2  0  0  0  0  0  0  0  0  0
  179.9135  146.3793  122.9342 C   0  0  0  0  0  0  0  0  0  0  0  0
  179.2021  147.1432  121.8484 C   0  0  0  0  0  0  0  0  0  0  0  0
  178.9153  146.1560  120.7368 C   0  0  1  0  0  0  0  0  0  0  0  0
  178.1350  146.8708  119.6376 C   0  0  0  0  0  0  0  0  0  0  0  0
  180.2207  145.6877  120.1970 C   0  0  0  0  0  0  0  0  0  0  0  0
  181.2291  145.5331  121.0840 O   0  0  0  0  0  0  0  0  0  0  0  0
  182.1272  145.7024  123.1151 O   0  0  0  0  0  0  0  0  0  0  0  0
  1  2  1  1
  3  2  1  1
  3  4  1  0
  4  5  1  6
  5  6  1  0
  6  7  2  0
  7  8  1  0
  8  9  1  0
  9 10  1  1
  9 11  1  0
 11 12  1  0
 12 13  1  1
 12 14  1  0
 14 15  1  1
 14 16  1  0
 16 17  1  1
 17 18  1  0
 18 19  1  0
 19 20  1  1
 19 21  1  0
 21 22  1  0
 22 23  1  6
 22 24  1  0
 24 25  1  1
 25 26  1  0
 26 27  1  0
 27 28  1  6
 27 29  1  0
 29 30  1  0
 24 31  1  0
 21  1  1  1
 30 24  1  0
 31  1  1  0
 19  3  1  0
 16  4  1  0
 14  7  1  0
M  END
$$$$
