
     RDKit          3D

 31 36  0  0  0  0  0  0  0  0999 V2000
  165.6728  152.2774  127.2359 C   0  0  1  0  0  0  0  0  0  0  0  0
  166.6961  153.4008  127.0067 C   0  0  0  0  0  0  0  0  0  0  0  0
  165.8524  154.6152  127.0882 C   0  0  1  0  0  0  0  0  0  0  0  0
  166.4193  155.8612  126.5250 C   0  0  2  0  0  0  0  0  0  0  0  0
  167.5603  156.3000  127.4125 C   0  0  0  0  0  0  0  0  0  0  0  0
  168.0394  157.6209  126.9355 C   0  0  0  0  0  0  0  0  0  0  0  0
  167.2426  158.4960  126.3523 C   0  0  0  0  0  0  0  0  0  0  0  0
  167.8227  159.7932  125.9103 C   0  0  0  0  0  0  0  0  0  0  0  0
  167.0404  160.8866  126.5990 C   0  0  1  0  0  0  0  0  0  0  0  0
  166.4418  161.7672  125.7139 O   0  0  0  0  0  0  0  0  0  0  0  0
  165.9783  160.3374  127.5141 C   0  0  0  0  0  0  0  0  0  0  0  0
  165.0418  159.3830  126.8227 C   0  0  1  0  0  0  0  0  0  0  0  0
  164.1624  160.0353  125.9640 O   0  0  0  0  0  0  0  0  0  0  0  0
  165.7960  158.2613  126.1106 C   0  0  1  0  0  0  0  0  0  0  0  0
  165.5308  158.4401  124.6345 C   0  0  0  0  0  0  0  0  0  0  0  0
  165.3341  156.9312  126.6211 C   0  0  1  0  0  0  0  0  0  0  0  0
  164.0577  156.4913  125.9288 C   0  0  0  0  0  0  0  0  0  0  0  0
  163.5381  155.2138  126.5264 C   0  0  0  0  0  0  0  0  0  0  0  0
  164.5747  154.1605  126.3759 C   0  0  1  0  0  0  0  0  0  0  0  0
  164.8862  153.9085  124.9278 C   0  0  0  0  0  0  0  0  0  0  0  0
  164.3204  152.9037  127.1502 C   0  0  1  0  0  0  0  0  0  0  0  0
  163.4948  151.8903  126.4590 C   0  0  2  0  0  0  0  0  0  0  0  0
  162.4286  151.4482  127.4399 C   0  0  0  0  0  0  0  0  0  0  0  0
  164.4514  150.7730  126.1012 C   0  0  2  0  0  0  0  0  0  0  0  0
  164.3477  150.5029  124.6201 C   0  0  0  0  0  0  0  0  0  0  0  0
  163.8987  149.1009  124.3020 C   0  0  0  0  0  0  0  0  0  0  0  0
  162.8018  148.7599  125.2883 C   0  0  1  0  0  0  0  0  0  0  0  0
  162.2679  147.3678  124.9636 C   0  0  0  0  0  0  0  0  0  0  0  0
  163.4002  148.7584  126.6508 C   0  0  0  0  0  0  0  0  0  0  0  0
  164.3601  149.6777  126.8981 O   0  0  0  0  0  0  0  0  0  0  0  0
  165.7493  151.3078  126.2872 O   0  0  0  0  0  0  0  0  0  0  0  0
  1  2  1  6
  3  2  1  6
  3  4  1  0
  4  5  1  1
  5  6  1  0
  6  7  2  0
  7  8  1  0
  8  9  1  0
  9 10  1  6
  9 11  1  0
 11 12  1  0
 12 13  1  6
 12 14  1  0
 14 15  1  6
 14 16  1  0
 16 17  1  6
 17 18  1  0
 18 19  1  0
 19 20  1  6
 19 21  1  0
 21 22  1  0
 22 23  1  1
 22 24  1  0
 24 25  1  6
 25 26  1  0
 26 27  1  0
 27 28  1  6
 27 29  1  0
 29 30  1  0
 24 31  1  0
 21  1  1  6
 30 24  1  0
 31  1  1  0
 19  3  1  0
 16  4  1  0
 14  7  1  0
M  END
$$$$
