
     RDKit          3D

 31 36  0  0  0  0  0  0  0  0999 V2000
  121.2560  146.5586  146.6087 C   0  0  1  0  0  0  0  0  0  0  0  0
  121.1171  145.6191  145.4004 C   0  0  0  0  0  0  0  0  0  0  0  0
  119.9264  144.8164  145.7622 C   0  0  1  0  0  0  0  0  0  0  0  0
  119.7274  143.5477  145.0259 C   0  0  2  0  0  0  0  0  0  0  0  0
  119.3660  143.8858  143.5986 C   0  0  0  0  0  0  0  0  0  0  0  0
  119.0266  142.6252  142.8934 C   0  0  0  0  0  0  0  0  0  0  0  0
  118.4974  141.5869  143.5121 C   0  0  0  0  0  0  0  0  0  0  0  0
  118.1939  140.3689  142.7127 C   0  0  0  0  0  0  0  0  0  0  0  0
  116.7198  140.0846  142.8796 C   0  0  1  0  0  0  0  0  0  0  0  0
  116.4641  138.8295  143.4053 O   0  0  0  0  0  0  0  0  0  0  0  0
  116.0362  141.1101  143.7445 C   0  0  0  0  0  0  0  0  0  0  0  0
  116.6906  141.2756  145.0901 C   0  0  1  0  0  0  0  0  0  0  0  0
  116.4449  140.1962  145.9330 O   0  0  0  0  0  0  0  0  0  0  0  0
  118.1859  141.5627  144.9641 C   0  0  1  0  0  0  0  0  0  0  0  0
  118.8994  140.3818  145.5786 C   0  0  0  0  0  0  0  0  0  0  0  0
  118.5171  142.8540  145.6469 C   0  0  1  0  0  0  0  0  0  0  0  0
  118.6971  142.6543  147.1401 C   0  0  0  0  0  0  0  0  0  0  0  0
  118.9145  143.9700  147.8333 C   0  0  0  0  0  0  0  0  0  0  0  0
  120.1281  144.6128  147.2670 C   0  0  1  0  0  0  0  0  0  0  0  0
  121.3459  143.7604  147.4855 C   0  0  0  0  0  0  0  0  0  0  0  0
  120.3326  146.0431  147.6623 C   0  0  1  0  0  0  0  0  0  0  0  0
  121.0719  146.2513  148.9258 C   0  0  2  0  0  0  0  0  0  0  0  0
  120.2759  147.2486  149.7419 C   0  0  0  0  0  0  0  0  0  0  0  0
  122.4247  146.7903  148.5121 C   0  0  2  0  0  0  0  0  0  0  0  0
  123.4983  145.9223  149.1216 C   0  0  0  0  0  0  0  0  0  0  0  0
  124.4096  146.6733  150.0564 C   0  0  0  0  0  0  0  0  0  0  0  0
  123.5322  147.6033  150.8674 C   0  0  1  0  0  0  0  0  0  0  0  0
  124.4052  148.3415  151.8779 C   0  0  0  0  0  0  0  0  0  0  0  0
  122.9192  148.5826  149.9294 C   0  0  0  0  0  0  0  0  0  0  0  0
  122.5805  148.1253  148.7031 O   0  0  0  0  0  0  0  0  0  0  0  0
  122.5159  146.5626  147.1174 O   0  0  0  0  0  0  0  0  0  0  0  0
  1  2  1  6
  3  2  1  6
  3  4  1  0
  4  5  1  6
  5  6  1  0
  6  7  2  0
  7  8  1  0
  8  9  1  0
  9 10  1  1
  9 11  1  0
 11 12  1  0
 12 13  1  1
 12 14  1  0
 14 15  1  1
 14 16  1  0
 16 17  1  1
 17 18  1  0
 18 19  1  0
 19 20  1  6
 19 21  1  0
 21 22  1  0
 22 23  1  1
 22 24  1  0
 24 25  1  1
 25 26  1  0
 26 27  1  0
 27 28  1  1
 27 29  1  0
 29 30  1  0
 24 31  1  0
 21  1  1  6
 30 24  1  0
 31  1  1  0
 19  3  1  0
 16  4  1  0
 14  7  1  0
M  END
$$$$
