
     RDKit          3D

 31 36  0  0  0  0  0  0  0  0999 V2000
  107.1739  164.1026  156.8198 C   0  0  1  0  0  0  0  0  0  0  0  0
  105.8007  164.4995  157.3842 C   0  0  0  0  0  0  0  0  0  0  0  0
  106.0529  165.8684  157.8898 C   0  0  1  0  0  0  0  0  0  0  0  0
  105.0712  166.4160  158.8528 C   0  0  2  0  0  0  0  0  0  0  0  0
  103.7782  166.6664  158.1127 C   0  0  0  0  0  0  0  0  0  0  0  0
  102.8373  167.3466  159.0367 C   0  0  0  0  0  0  0  0  0  0  0  0
  103.2462  168.1473  160.0023 C   0  0  0  0  0  0  0  0  0  0  0  0
  102.2206  168.7810  160.8750 C   0  0  0  0  0  0  0  0  0  0  0  0
  102.4145  170.2757  160.7740 C   0  0  1  0  0  0  0  0  0  0  0  0
  102.6680  170.8750  161.9961 O   0  0  0  0  0  0  0  0  0  0  0  0
  103.5242  170.6434  159.8252 C   0  0  0  0  0  0  0  0  0  0  0  0
  104.8291  169.9699  160.1566 C   0  0  1  0  0  0  0  0  0  0  0  0
  105.4294  170.5105  161.2896 O   0  0  0  0  0  0  0  0  0  0  0  0
  104.6746  168.4543  160.2701 C   0  0  1  0  0  0  0  0  0  0  0  0
  104.9694  168.1027  161.7091 C   0  0  0  0  0  0  0  0  0  0  0  0
  105.6008  167.7733  159.3101 C   0  0  1  0  0  0  0  0  0  0  0  0
  106.9997  167.6581  159.8861 C   0  0  0  0  0  0  0  0  0  0  0  0
  107.9487  167.0794  158.8744 C   0  0  0  0  0  0  0  0  0  0  0  0
  107.4609  165.7334  158.4780 C   0  0  1  0  0  0  0  0  0  0  0  0
  107.4101  164.8052  159.6583 C   0  0  0  0  0  0  0  0  0  0  0  0
  108.1456  165.1346  157.2878 C   0  0  1  0  0  0  0  0  0  0  0  0
  109.3746  164.3677  157.5840 C   0  0  2  0  0  0  0  0  0  0  0  0
  110.4379  164.8512  156.6196 C   0  0  0  0  0  0  0  0  0  0  0  0
  109.0040  162.9175  157.3575 C   0  0  2  0  0  0  0  0  0  0  0  0
  109.3396  162.1324  158.6018 C   0  0  0  0  0  0  0  0  0  0  0  0
  110.3563  161.0472  158.3633 C   0  0  0  0  0  0  0  0  0  0  0  0
  111.4050  161.6278  157.4383 C   0  0  1  0  0  0  0  0  0  0  0  0
  112.4951  160.5830  157.2183 C   0  0  0  0  0  0  0  0  0  0  0  0
  110.7447  161.9393  156.1415 C   0  0  0  0  0  0  0  0  0  0  0  0
  109.4721  162.3921  156.1966 O   0  0  0  0  0  0  0  0  0  0  0  0
  107.5904  162.8930  157.2776 O   0  0  0  0  0  0  0  0  0  0  0  0
  1  2  1  1
  3  2  1  1
  3  4  1  0
  4  5  1  6
  5  6  1  0
  6  7  2  0
  7  8  1  0
  8  9  1  0
  9 10  1  1
  9 11  1  0
 11 12  1  0
 12 13  1  1
 12 14  1  0
 14 15  1  1
 14 16  1  0
 16 17  1  1
 17 18  1  0
 18 19  1  0
 19 20  1  1
 19 21  1  0
 21 22  1  0
 22 23  1  6
 22 24  1  0
 24 25  1  1
 25 26  1  0
 26 27  1  0
 27 28  1  6
 27 29  1  0
 29 30  1  0
 24 31  1  0
 21  1  1  1
 30 24  1  0
 31  1  1  0
 19  3  1  0
 16  4  1  0
 14  7  1  0
M  END
$$$$
