
     RDKit          3D

 31 36  0  0  0  0  0  0  0  0999 V2000
  118.8923  175.7915  148.2044 C   0  0  1  0  0  0  0  0  0  0  0  0
  118.7328  174.7397  147.0954 C   0  0  0  0  0  0  0  0  0  0  0  0
  117.3651  174.2282  147.3422 C   0  0  1  0  0  0  0  0  0  0  0  0
  117.0152  172.9308  146.7213 C   0  0  2  0  0  0  0  0  0  0  0  0
  116.9307  173.1342  145.2268 C   0  0  0  0  0  0  0  0  0  0  0  0
  116.4419  171.8748  144.6127 C   0  0  0  0  0  0  0  0  0  0  0  0
  115.6320  171.0461  145.2435 C   0  0  0  0  0  0  0  0  0  0  0  0
  115.1997  169.8089  144.5383 C   0  0  0  0  0  0  0  0  0  0  0  0
  113.6900  169.8283  144.4935 C   0  0  1  0  0  0  0  0  0  0  0  0
  113.1136  168.7251  145.1001 O   0  0  0  0  0  0  0  0  0  0  0  0
  113.1172  171.0701  145.1235 C   0  0  0  0  0  0  0  0  0  0  0  0
  113.5996  171.2916  146.5322 C   0  0  1  0  0  0  0  0  0  0  0  0
  113.0250  170.4004  147.4332 O   0  0  0  0  0  0  0  0  0  0  0  0
  115.1248  171.2765  146.6203 C   0  0  1  0  0  0  0  0  0  0  0  0
  115.4908  170.0778  147.4631 C   0  0  0  0  0  0  0  0  0  0  0  0
  115.6149  172.5641  147.2079 C   0  0  1  0  0  0  0  0  0  0  0  0
  115.5427  172.5380  148.7231 C   0  0  0  0  0  0  0  0  0  0  0  0
  115.9261  173.8720  149.2999 C   0  0  0  0  0  0  0  0  0  0  0  0
  117.3115  174.1959  148.8728 C   0  0  1  0  0  0  0  0  0  0  0  0
  118.2879  173.1698  149.3741 C   0  0  0  0  0  0  0  0  0  0  0  0
  117.7469  175.6035  149.1431 C   0  0  1  0  0  0  0  0  0  0  0  0
  118.3316  175.8396  150.4805 C   0  0  2  0  0  0  0  0  0  0  0  0
  117.6509  177.0683  151.0474 C   0  0  0  0  0  0  0  0  0  0  0  0
  119.8097  176.0573  150.2367 C   0  0  2  0  0  0  0  0  0  0  0  0
  120.5892  175.0957  151.0999 C   0  0  0  0  0  0  0  0  0  0  0  0
  121.4966  175.7838  152.0855 C   0  0  0  0  0  0  0  0  0  0  0  0
  120.7239  176.9613  152.6413 C   0  0  1  0  0  0  0  0  0  0  0  0
  121.5812  177.6543  153.6962 C   0  0  0  0  0  0  0  0  0  0  0  0
  120.4590  177.9015  151.5186 C   0  0  0  0  0  0  0  0  0  0  0  0
  120.2066  177.3536  150.3087 O   0  0  0  0  0  0  0  0  0  0  0  0
  120.0440  175.6304  148.9071 O   0  0  0  0  0  0  0  0  0  0  0  0
  1  2  1  6
  3  2  1  1
  3  4  1  0
  4  5  1  6
  5  6  1  0
  6  7  2  0
  7  8  1  0
  8  9  1  0
  9 10  1  1
  9 11  1  0
 11 12  1  0
 12 13  1  1
 12 14  1  0
 14 15  1  1
 14 16  1  0
 16 17  1  1
 17 18  1  0
 18 19  1  0
 19 20  1  1
 19 21  1  0
 21 22  1  0
 22 23  1  6
 22 24  1  0
 24 25  1  1
 25 26  1  0
 26 27  1  0
 27 28  1  1
 27 29  1  0
 29 30  1  0
 24 31  1  0
 21  1  1  6
 30 24  1  0
 31  1  1  0
 19  3  1  0
 16  4  1  0
 14  7  1  0
M  END
$$$$
