
     RDKit          3D

 31 36  0  0  0  0  0  0  0  0999 V2000
  163.9639  147.5186  125.0208 C   0  0  1  0  0  0  0  0  0  0  0  0
  165.4469  147.7573  125.3458 C   0  0  0  0  0  0  0  0  0  0  0  0
  165.3735  148.4641  126.6451 C   0  0  1  0  0  0  0  0  0  0  0  0
  166.5831  149.2023  127.0730 C   0  0  2  0  0  0  0  0  0  0  0  0
  167.6549  148.1918  127.4080 C   0  0  0  0  0  0  0  0  0  0  0  0
  168.8193  148.9183  127.9722 C   0  0  0  0  0  0  0  0  0  0  0  0
  168.6925  150.0415  128.6527 C   0  0  0  0  0  0  0  0  0  0  0  0
  169.9244  150.6917  129.1767 C   0  0  0  0  0  0  0  0  0  0  0  0
  169.7585  150.8156  130.6729 C   0  0  1  0  0  0  0  0  0  0  0  0
  169.8403  152.1225  131.1228 O   0  0  0  0  0  0  0  0  0  0  0  0
  168.4575  150.2287  131.1524 C   0  0  0  0  0  0  0  0  0  0  0  0
  167.2578  150.8011  130.4460 C   0  0  1  0  0  0  0  0  0  0  0  0
  166.9799  152.1037  130.8486 O   0  0  0  0  0  0  0  0  0  0  0  0
  167.3882  150.6967  128.9274 C   0  0  1  0  0  0  0  0  0  0  0  0
  167.4548  152.1132  128.4074 C   0  0  0  0  0  0  0  0  0  0  0  0
  166.2289  149.9320  128.3668 C   0  0  1  0  0  0  0  0  0  0  0  0
  165.0175  150.8273  128.1856 C   0  0  0  0  0  0  0  0  0  0  0  0
  163.8263  150.0304  127.7327 C   0  0  0  0  0  0  0  0  0  0  0  0
  164.1558  149.3712  126.4429 C   0  0  1  0  0  0  0  0  0  0  0  0
  164.4733  150.3852  125.3807 C   0  0  0  0  0  0  0  0  0  0  0  0
  163.1746  148.3335  125.9910 C   0  0  1  0  0  0  0  0  0  0  0  0
  162.0365  148.8421  125.1958 C   0  0  2  0  0  0  0  0  0  0  0  0
  160.7802  148.2416  125.7921 C   0  0  0  0  0  0  0  0  0  0  0  0
  162.2922  148.3639  123.7824 C   0  0  2  0  0  0  0  0  0  0  0  0
  162.2566  149.5539  122.8551 C   0  0  0  0  0  0  0  0  0  0  0  0
  161.1789  149.4585  121.8074 C   0  0  0  0  0  0  0  0  0  0  0  0
  159.9497  148.9033  122.4954 C   0  0  1  0  0  0  0  0  0  0  0  0
  158.8071  148.8491  121.4857 C   0  0  0  0  0  0  0  0  0  0  0  0
  160.2712  147.5260  122.9582 C   0  0  0  0  0  0  0  0  0  0  0  0
  161.5302  147.3076  123.3996 O   0  0  0  0  0  0  0  0  0  0  0  0
  163.6385  147.9252  123.7658 O   0  0  0  0  0  0  0  0  0  0  0  0
  1  2  1  1
  3  2  1  6
  3  4  1  0
  4  5  1  1
  5  6  1  0
  6  7  2  0
  7  8  1  0
  8  9  1  0
  9 10  1  6
  9 11  1  0
 11 12  1  0
 12 13  1  6
 12 14  1  0
 14 15  1  6
 14 16  1  0
 16 17  1  6
 17 18  1  0
 18 19  1  0
 19 20  1  6
 19 21  1  0
 21 22  1  0
 22 23  1  1
 22 24  1  0
 24 25  1  6
 25 26  1  0
 26 27  1  0
 27 28  1  6
 27 29  1  0
 29 30  1  0
 24 31  1  0
 21  1  1  6
 30 24  1  0
 31  1  1  0
 19  3  1  0
 16  4  1  0
 14  7  1  0
M  END
$$$$
