
     RDKit          3D

 31 36  0  0  0  0  0  0  0  0999 V2000
  192.0226  157.5788  122.4702 C   0  0  1  0  0  0  0  0  0  0  0  0
  191.3582  158.7035  123.2799 C   0  0  0  0  0  0  0  0  0  0  0  0
  190.3393  159.2120  122.3332 C   0  0  1  0  0  0  0  0  0  0  0  0
  189.7754  160.5513  122.6149 C   0  0  2  0  0  0  0  0  0  0  0  0
  188.9212  160.4484  123.8566 C   0  0  0  0  0  0  0  0  0  0  0  0
  188.2405  161.7508  124.0624 C   0  0  0  0  0  0  0  0  0  0  0  0
  187.9106  162.5445  123.0615 C   0  0  0  0  0  0  0  0  0  0  0  0
  187.2302  163.8303  123.3754 C   0  0  0  0  0  0  0  0  0  0  0  0
  185.9158  163.8300  122.6310 C   0  0  1  0  0  0  0  0  0  0  0  0
  185.7850  164.8966  121.7579 O   0  0  0  0  0  0  0  0  0  0  0  0
  185.6982  162.5553  121.8598 C   0  0  0  0  0  0  0  0  0  0  0  0
  186.8297  162.2358  120.9196 C   0  0  1  0  0  0  0  0  0  0  0  0
  186.8434  163.0713  119.8070 O   0  0  0  0  0  0  0  0  0  0  0  0
  188.1794  162.2287  121.6352 C   0  0  1  0  0  0  0  0  0  0  0  0
  188.9804  163.3650  121.0448 C   0  0  0  0  0  0  0  0  0  0  0  0
  188.8463  160.8999  121.4543 C   0  0  1  0  0  0  0  0  0  0  0  0
  189.5696  160.8262  120.1226 C   0  0  0  0  0  0  0  0  0  0  0  0
  190.1376  159.4530  119.8978 C   0  0  0  0  0  0  0  0  0  0  0  0
  191.0867  159.1433  120.9978 C   0  0  1  0  0  0  0  0  0  0  0  0
  192.2251  160.1234  121.0244 C   0  0  0  0  0  0  0  0  0  0  0  0
  191.5374  157.7164  121.0652 C   0  0  1  0  0  0  0  0  0  0  0  0
  192.7187  157.3859  120.2397 C   0  0  2  0  0  0  0  0  0  0  0  0
  192.3768  156.1296  119.4655 C   0  0  0  0  0  0  0  0  0  0  0  0
  193.8465  157.1691  121.2260 C   0  0  2  0  0  0  0  0  0  0  0  0
  195.0010  158.0630  120.8449 C   0  0  0  0  0  0  0  0  0  0  0  0
  196.2565  157.3015  120.5102 C   0  0  0  0  0  0  0  0  0  0  0  0
  195.8325  156.0980  119.6952 C   0  0  1  0  0  0  0  0  0  0  0  0
  197.0808  155.3275  119.2756 C   0  0  0  0  0  0  0  0  0  0  0  0
  194.9843  155.2372  120.5637 C   0  0  0  0  0  0  0  0  0  0  0  0
  194.1666  155.8668  121.4369 O   0  0  0  0  0  0  0  0  0  0  0  0
  193.3774  157.6807  122.4603 O   0  0  0  0  0  0  0  0  0  0  0  0
  1  2  1  1
  3  2  1  1
  3  4  1  0
  4  5  1  1
  5  6  1  0
  6  7  2  0
  7  8  1  0
  8  9  1  0
  9 10  1  6
  9 11  1  0
 11 12  1  0
 12 13  1  6
 12 14  1  0
 14 15  1  6
 14 16  1  0
 16 17  1  6
 17 18  1  0
 18 19  1  0
 19 20  1  1
 19 21  1  0
 21 22  1  0
 22 23  1  1
 22 24  1  0
 24 25  1  6
 25 26  1  0
 26 27  1  0
 27 28  1  1
 27 29  1  0
 29 30  1  0
 24 31  1  0
 21  1  1  1
 30 24  1  0
 31  1  1  0
 19  3  1  0
 16  4  1  0
 14  7  1  0
M  END
$$$$
