
     RDKit          3D

 31 36  0  0  0  0  0  0  0  0999 V2000
  116.1269  167.6810  140.5767 C   0  0  1  0  0  0  0  0  0  0  0  0
  115.7002  168.1447  141.9784 C   0  0  0  0  0  0  0  0  0  0  0  0
  116.9405  167.9511  142.7641 C   0  0  1  0  0  0  0  0  0  0  0  0
  116.7993  167.9166  144.2372 C   0  0  2  0  0  0  0  0  0  0  0  0
  116.4312  169.3049  144.7053 C   0  0  0  0  0  0  0  0  0  0  0  0
  116.4281  169.3100  146.1892 C   0  0  0  0  0  0  0  0  0  0  0  0
  117.2144  168.5267  146.9027 C   0  0  0  0  0  0  0  0  0  0  0  0
  117.1339  168.6092  148.3864 C   0  0  0  0  0  0  0  0  0  0  0  0
  118.5175  168.9499  148.8875 C   0  0  1  0  0  0  0  0  0  0  0  0
  119.0247  168.0083  149.7668 O   0  0  0  0  0  0  0  0  0  0  0  0
  119.5026  169.1289  147.7630 C   0  0  0  0  0  0  0  0  0  0  0  0
  119.5610  167.9431  146.8374 C   0  0  1  0  0  0  0  0  0  0  0  0
  120.2054  166.8536  147.4152 O   0  0  0  0  0  0  0  0  0  0  0  0
  118.1781  167.5646  146.3097 C   0  0  1  0  0  0  0  0  0  0  0  0
  117.8727  166.1923  146.8618 C   0  0  0  0  0  0  0  0  0  0  0  0
  118.1770  167.5956  144.8123 C   0  0  1  0  0  0  0  0  0  0  0  0
  118.7324  166.3063  144.2367 C   0  0  0  0  0  0  0  0  0  0  0  0
  118.8357  166.3898  142.7396 C   0  0  0  0  0  0  0  0  0  0  0  0
  117.4824  166.6422  142.1813 C   0  0  1  0  0  0  0  0  0  0  0  0
  116.5368  165.5262  142.5249 C   0  0  0  0  0  0  0  0  0  0  0  0
  117.4527  167.0124  140.7301 C   0  0  1  0  0  0  0  0  0  0  0  0
  117.3963  165.8746  139.7875 C   0  0  2  0  0  0  0  0  0  0  0  0
  118.4580  166.1219  138.7357 C   0  0  0  0  0  0  0  0  0  0  0  0
  115.9957  165.9012  139.2137 C   0  0  2  0  0  0  0  0  0  0  0  0
  115.3630  164.5466  139.4192 C   0  0  0  0  0  0  0  0  0  0  0  0
  114.9851  163.8658  138.1300 C   0  0  0  0  0  0  0  0  0  0  0  0
  116.1177  164.1155  137.1567 C   0  0  1  0  0  0  0  0  0  0  0  0
  115.8098  163.3878  135.8514 C   0  0  0  0  0  0  0  0  0  0  0  0
  116.1864  165.5807  136.9057 C   0  0  0  0  0  0  0  0  0  0  0  0
  115.9144  166.3936  137.9512 O   0  0  0  0  0  0  0  0  0  0  0  0
  115.2597  166.7805  140.0445 O   0  0  0  0  0  0  0  0  0  0  0  0
  1  2  1  1
  3  2  1  6
  3  4  1  0
  4  5  1  1
  5  6  1  0
  6  7  2  0
  7  8  1  0
  8  9  1  0
  9 10  1  1
  9 11  1  0
 11 12  1  0
 12 13  1  1
 12 14  1  0
 14 15  1  6
 14 16  1  0
 16 17  1  6
 17 18  1  0
 18 19  1  0
 19 20  1  6
 19 21  1  0
 21 22  1  0
 22 23  1  6
 22 24  1  0
 24 25  1  6
 25 26  1  0
 26 27  1  0
 27 28  1  6
 27 29  1  0
 29 30  1  0
 24 31  1  0
 21  1  1  1
 30 24  1  0
 31  1  1  0
 19  3  1  0
 16  4  1  0
 14  7  1  0
M  END
$$$$
