
     RDKit          3D

 31 36  0  0  0  0  0  0  0  0999 V2000
  132.7562  162.3541  155.6574 C   0  0  1  0  0  0  0  0  0  0  0  0
  133.3457  162.4343  154.2404 C   0  0  0  0  0  0  0  0  0  0  0  0
  132.6637  163.6251  153.6837 C   0  0  1  0  0  0  0  0  0  0  0  0
  132.6818  163.7776  152.2114 C   0  0  2  0  0  0  0  0  0  0  0  0
  134.0981  164.0915  151.7901 C   0  0  0  0  0  0  0  0  0  0  0  0
  134.0966  164.3857  150.3356 C   0  0  0  0  0  0  0  0  0  0  0  0
  133.0589  164.9213  149.7216 C   0  0  0  0  0  0  0  0  0  0  0  0
  133.1594  165.1767  148.2589 C   0  0  0  0  0  0  0  0  0  0  0  0
  132.9098  166.6514  148.0479 C   0  0  1  0  0  0  0  0  0  0  0  0
  131.8392  166.9071  147.2080 O   0  0  0  0  0  0  0  0  0  0  0  0
  132.6814  167.3818  149.3446 C   0  0  0  0  0  0  0  0  0  0  0  0
  131.5777  166.7798  150.1726 C   0  0  1  0  0  0  0  0  0  0  0  0
  130.3179  167.0398  149.6422 O   0  0  0  0  0  0  0  0  0  0  0  0
  131.7925  165.2854  150.4070 C   0  0  1  0  0  0  0  0  0  0  0  0
  130.6577  164.5770  149.7058 C   0  0  0  0  0  0  0  0  0  0  0  0
  131.8289  164.9992  151.8766 C   0  0  1  0  0  0  0  0  0  0  0  0
  130.4280  164.8710  152.4451 C   0  0  0  0  0  0  0  0  0  0  0  0
  130.4702  164.6993  153.9377 C   0  0  0  0  0  0  0  0  0  0  0  0
  131.2504  163.4757  154.2552 C   0  0  1  0  0  0  0  0  0  0  0  0
  130.6097  162.2538  153.6601 C   0  0  0  0  0  0  0  0  0  0  0  0
  131.6084  163.3076  155.7000 C   0  0  1  0  0  0  0  0  0  0  0  0
  130.5950  162.6184  156.5273 C   0  0  2  0  0  0  0  0  0  0  0  0
  130.3978  163.4589  157.7719 C   0  0  0  0  0  0  0  0  0  0  0  0
  131.1878  161.2597  156.8342 C   0  0  2  0  0  0  0  0  0  0  0  0
  130.2032  160.1961  156.4140 C   0  0  0  0  0  0  0  0  0  0  0  0
  129.7394  159.3312  157.5564 C   0  0  0  0  0  0  0  0  0  0  0  0
  129.5154  160.2519  158.7374 C   0  0  1  0  0  0  0  0  0  0  0  0
  128.9805  159.4279  159.9049 C   0  0  0  0  0  0  0  0  0  0  0  0
  130.8293  160.8448  159.1069 C   0  0  0  0  0  0  0  0  0  0  0  0
  131.6775  161.1313  158.0939 O   0  0  0  0  0  0  0  0  0  0  0  0
  132.2853  161.1140  155.9514 O   0  0  0  0  0  0  0  0  0  0  0  0
  1  2  1  6
  3  2  1  6
  3  4  1  0
  4  5  1  1
  5  6  1  0
  6  7  2  0
  7  8  1  0
  8  9  1  0
  9 10  1  6
  9 11  1  0
 11 12  1  0
 12 13  1  6
 12 14  1  0
 14 15  1  6
 14 16  1  0
 16 17  1  6
 17 18  1  0
 18 19  1  0
 19 20  1  6
 19 21  1  0
 21 22  1  0
 22 23  1  1
 22 24  1  0
 24 25  1  6
 25 26  1  0
 26 27  1  0
 27 28  1  1
 27 29  1  0
 29 30  1  0
 24 31  1  0
 21  1  1  6
 30 24  1  0
 31  1  1  0
 19  3  1  0
 16  4  1  0
 14  7  1  0
M  END
$$$$
