
     RDKit          3D

 31 36  0  0  0  0  0  0  0  0999 V2000
  132.0402  172.0307  142.0111 C   0  0  1  0  0  0  0  0  0  0  0  0
  131.3436  170.6615  142.0534 C   0  0  0  0  0  0  0  0  0  0  0  0
  131.2734  170.3898  143.5075 C   0  0  1  0  0  0  0  0  0  0  0  0
  131.0255  168.9882  143.9138 C   0  0  2  0  0  0  0  0  0  0  0  0
  129.6071  168.6338  143.5333 C   0  0  0  0  0  0  0  0  0  0  0  0
  129.3069  167.2812  144.0645 C   0  0  0  0  0  0  0  0  0  0  0  0
  129.8646  166.8114  145.1641 C   0  0  0  0  0  0  0  0  0  0  0  0
  129.4953  165.4412  145.6123 C   0  0  0  0  0  0  0  0  0  0  0  0
  128.9481  165.5656  147.0148 C   0  0  1  0  0  0  0  0  0  0  0  0
  129.6504  164.8137  147.9413 O   0  0  0  0  0  0  0  0  0  0  0  0
  128.9156  166.9943  147.4889 C   0  0  0  0  0  0  0  0  0  0  0  0
  130.2529  167.6782  147.3888 C   0  0  1  0  0  0  0  0  0  0  0  0
  131.1484  167.2307  148.3553 O   0  0  0  0  0  0  0  0  0  0  0  0
  130.8422  167.5725  145.9832 C   0  0  1  0  0  0  0  0  0  0  0  0
  132.0976  166.7421  146.1092 C   0  0  0  0  0  0  0  0  0  0  0  0
  131.1102  168.9413  145.4377 C   0  0  1  0  0  0  0  0  0  0  0  0
  132.4378  169.4803  145.9369 C   0  0  0  0  0  0  0  0  0  0  0  0
  132.6458  170.8969  145.4797 C   0  0  0  0  0  0  0  0  0  0  0  0
  132.6227  170.9271  143.9947 C   0  0  1  0  0  0  0  0  0  0  0  0
  133.7223  170.0814  143.4174 C   0  0  0  0  0  0  0  0  0  0  0  0
  132.5526  172.2950  143.3881 C   0  0  1  0  0  0  0  0  0  0  0  0
  133.8560  172.9579  143.1689 C   0  0  2  0  0  0  0  0  0  0  0  0
  133.7360  174.3600  143.7294 C   0  0  0  0  0  0  0  0  0  0  0  0
  134.0604  172.9496  141.6690 C   0  0  2  0  0  0  0  0  0  0  0  0
  135.3945  172.3127  141.3660 C   0  0  0  0  0  0  0  0  0  0  0  0
  136.3474  173.2387  140.6568 C   0  0  0  0  0  0  0  0  0  0  0  0
  136.2035  174.5968  141.3105 C   0  0  1  0  0  0  0  0  0  0  0  0
  137.1996  175.5569  140.6670 C   0  0  0  0  0  0  0  0  0  0  0  0
  134.8170  175.0765  141.0611 C   0  0  0  0  0  0  0  0  0  0  0  0
  133.8377  174.1446  141.0644 O   0  0  0  0  0  0  0  0  0  0  0  0
  133.0973  172.0461  141.1577 O   0  0  0  0  0  0  0  0  0  0  0  0
  1  2  1  1
  3  2  1  6
  3  4  1  0
  4  5  1  1
  5  6  1  0
  6  7  2  0
  7  8  1  0
  8  9  1  0
  9 10  1  1
  9 11  1  0
 11 12  1  0
 12 13  1  1
 12 14  1  0
 14 15  1  1
 14 16  1  0
 16 17  1  6
 17 18  1  0
 18 19  1  0
 19 20  1  6
 19 21  1  0
 21 22  1  0
 22 23  1  6
 22 24  1  0
 24 25  1  1
 25 26  1  0
 26 27  1  0
 27 28  1  6
 27 29  1  0
 29 30  1  0
 24 31  1  0
 21  1  1  6
 30 24  1  0
 31  1  1  0
 19  3  1  0
 16  4  1  0
 14  7  1  0
M  END
$$$$
