
     RDKit          3D

 31 36  0  0  0  0  0  0  0  0999 V2000
  165.6285  149.8414  126.0686 C   0  0  1  0  0  0  0  0  0  0  0  0
  167.0237  149.2537  126.3333 C   0  0  0  0  0  0  0  0  0  0  0  0
  167.1830  149.4674  127.7901 C   0  0  1  0  0  0  0  0  0  0  0  0
  168.5590  149.3883  128.3300 C   0  0  2  0  0  0  0  0  0  0  0  0
  169.0135  147.9501  128.2458 C   0  0  0  0  0  0  0  0  0  0  0  0
  170.3335  147.8393  128.9147 C   0  0  0  0  0  0  0  0  0  0  0  0
  170.6863  148.6171  129.9204 C   0  0  0  0  0  0  0  0  0  0  0  0
  172.0338  148.4245  130.5220 C   0  0  0  0  0  0  0  0  0  0  0  0
  171.8270  148.1353  131.9901 C   0  0  1  0  0  0  0  0  0  0  0  0
  172.4670  149.0415  132.8184 O   0  0  0  0  0  0  0  0  0  0  0  0
  170.3688  148.0980  132.3635 C   0  0  0  0  0  0  0  0  0  0  0  0
  169.6282  149.3478  131.9693 C   0  0  1  0  0  0  0  0  0  0  0  0
  169.9521  150.4313  132.7800 O   0  0  0  0  0  0  0  0  0  0  0  0
  169.8145  149.6767  130.4890 C   0  0  1  0  0  0  0  0  0  0  0  0
  170.5677  150.9847  130.4349 C   0  0  0  0  0  0  0  0  0  0  0  0
  168.4811  149.7522  129.8110 C   0  0  1  0  0  0  0  0  0  0  0  0
  167.8379  151.1110  130.0159 C   0  0  0  0  0  0  0  0  0  0  0  0
  166.4532  151.1407  129.4324 C   0  0  0  0  0  0  0  0  0  0  0  0
  166.5413  150.8454  127.9792 C   0  0  1  0  0  0  0  0  0  0  0  0
  167.3732  151.8734  127.2660 C   0  0  0  0  0  0  0  0  0  0  0  0
  165.2309  150.5781  127.3046 C   0  0  1  0  0  0  0  0  0  0  0  0
  164.5222  151.7744  126.8014 C   0  0  2  0  0  0  0  0  0  0  0  0
  163.0881  151.6686  127.2775 C   0  0  0  0  0  0  0  0  0  0  0  0
  164.6385  151.7021  125.2938 C   0  0  2  0  0  0  0  0  0  0  0  0
  165.2289  152.9968  124.7915 C   0  0  0  0  0  0  0  0  0  0  0  0
  164.3148  153.7429  123.8556 C   0  0  0  0  0  0  0  0  0  0  0  0
  162.9184  153.6335  124.4305 C   0  0  1  0  0  0  0  0  0  0  0  0
  161.9628  154.4318  123.5485 C   0  0  0  0  0  0  0  0  0  0  0  0
  162.5306  152.1969  124.4119 C   0  0  0  0  0  0  0  0  0  0  0  0
  163.5077  151.2966  124.6614 O   0  0  0  0  0  0  0  0  0  0  0  0
  165.6271  150.7221  125.0340 O   0  0  0  0  0  0  0  0  0  0  0  0
  1  2  1  1
  3  2  1  6
  3  4  1  0
  4  5  1  1
  5  6  1  0
  6  7  2  0
  7  8  1  0
  8  9  1  0
  9 10  1  1
  9 11  1  0
 11 12  1  0
 12 13  1  1
 12 14  1  0
 14 15  1  1
 14 16  1  0
 16 17  1  6
 17 18  1  0
 18 19  1  0
 19 20  1  6
 19 21  1  0
 21 22  1  0
 22 23  1  6
 22 24  1  0
 24 25  1  6
 25 26  1  0
 26 27  1  0
 27 28  1  6
 27 29  1  0
 29 30  1  0
 24 31  1  0
 21  1  1  6
 30 24  1  0
 31  1  1  0
 19  3  1  0
 16  4  1  0
 14  7  1  0
M  END
$$$$
