
     RDKit          3D

 31 36  0  0  0  0  0  0  0  0999 V2000
  111.0772  167.8203  139.3126 C   0  0  1  0  0  0  0  0  0  0  0  0
  112.5642  167.4320  139.3167 C   0  0  0  0  0  0  0  0  0  0  0  0
  112.7902  167.0705  140.7349 C   0  0  1  0  0  0  0  0  0  0  0  0
  114.1959  167.0263  141.1969 C   0  0  2  0  0  0  0  0  0  0  0  0
  114.8694  165.8463  140.5367 C   0  0  0  0  0  0  0  0  0  0  0  0
  116.2341  165.7123  141.1036 C   0  0  0  0  0  0  0  0  0  0  0  0
  116.5275  166.0725  142.3385 C   0  0  0  0  0  0  0  0  0  0  0  0
  117.9278  165.8967  142.8108 C   0  0  0  0  0  0  0  0  0  0  0  0
  117.8754  165.0136  144.0352 C   0  0  1  0  0  0  0  0  0  0  0  0
  118.4181  165.6110  145.1602 O   0  0  0  0  0  0  0  0  0  0  0  0
  116.4727  164.5738  144.3607 C   0  0  0  0  0  0  0  0  0  0  0  0
  115.5139  165.7251  144.5072 C   0  0  1  0  0  0  0  0  0  0  0  0
  115.7157  166.4332  145.6879 O   0  0  0  0  0  0  0  0  0  0  0  0
  115.5388  166.6450  143.2877 C   0  0  1  0  0  0  0  0  0  0  0  0
  116.0654  167.9762  143.7691 C   0  0  0  0  0  0  0  0  0  0  0  0
  114.1659  166.7485  142.6981 C   0  0  1  0  0  0  0  0  0  0  0  0
  113.3282  167.7757  143.4364 C   0  0  0  0  0  0  0  0  0  0  0  0
  111.9188  167.7912  142.9146 C   0  0  0  0  0  0  0  0  0  0  0  0
  111.9497  168.1215  141.4666 C   0  0  1  0  0  0  0  0  0  0  0  0
  112.5519  169.4780  141.2321 C   0  0  0  0  0  0  0  0  0  0  0  0
  110.6549  167.9194  140.7410 C   0  0  1  0  0  0  0  0  0  0  0  0
  109.7285  169.0715  140.7662 C   0  0  2  0  0  0  0  0  0  0  0  0
  108.3679  168.5334  141.1579 C   0  0  0  0  0  0  0  0  0  0  0  0
  109.7473  169.6292  139.3589 C   0  0  2  0  0  0  0  0  0  0  0  0
  110.0838  171.0987  139.4252 C   0  0  0  0  0  0  0  0  0  0  0  0
  108.9970  171.9825  138.8721 C   0  0  0  0  0  0  0  0  0  0  0  0
  107.6810  171.4083  139.3527 C   0  0  1  0  0  0  0  0  0  0  0  0
  106.5489  172.3101  138.8700 C   0  0  0  0  0  0  0  0  0  0  0  0
  107.5298  170.0548  138.7528 C   0  0  0  0  0  0  0  0  0  0  0  0
  108.6546  169.3175  138.6159 O   0  0  0  0  0  0  0  0  0  0  0  0
  110.8600  169.0256  138.7242 O   0  0  0  0  0  0  0  0  0  0  0  0
  1  2  1  1
  3  2  1  6
  3  4  1  0
  4  5  1  6
  5  6  1  0
  6  7  2  0
  7  8  1  0
  8  9  1  0
  9 10  1  1
  9 11  1  0
 11 12  1  0
 12 13  1  1
 12 14  1  0
 14 15  1  1
 14 16  1  0
 16 17  1  1
 17 18  1  0
 18 19  1  0
 19 20  1  1
 19 21  1  0
 21 22  1  0
 22 23  1  6
 22 24  1  0
 24 25  1  1
 25 26  1  0
 26 27  1  0
 27 28  1  6
 27 29  1  0
 29 30  1  0
 24 31  1  0
 21  1  1  6
 30 24  1  0
 31  1  1  0
 19  3  1  0
 16  4  1  0
 14  7  1  0
M  END
$$$$
