
     RDKit          3D

 31 36  0  0  0  0  0  0  0  0999 V2000
  126.9695  148.0477  136.4246 C   0  0  1  0  0  0  0  0  0  0  0  0
  126.6047  146.5553  136.4652 C   0  0  0  0  0  0  0  0  0  0  0  0
  127.7942  145.9247  135.8484 C   0  0  1  0  0  0  0  0  0  0  0  0
  127.6357  144.5368  135.3586 C   0  0  2  0  0  0  0  0  0  0  0  0
  127.4771  143.6318  136.5577 C   0  0  0  0  0  0  0  0  0  0  0  0
  127.4611  142.2266  136.0813 C   0  0  0  0  0  0  0  0  0  0  0  0
  128.1134  141.8359  135.0030 C   0  0  0  0  0  0  0  0  0  0  0  0
  128.0325  140.4028  134.6102 C   0  0  0  0  0  0  0  0  0  0  0  0
  129.4470  139.8748  134.5643 C   0  0  1  0  0  0  0  0  0  0  0  0
  129.7980  139.3670  133.3249 O   0  0  0  0  0  0  0  0  0  0  0  0
  130.4583  140.9205  134.9529 C   0  0  0  0  0  0  0  0  0  0  0  0
  130.3455  142.1803  134.1367 C   0  0  1  0  0  0  0  0  0  0  0  0
  130.8125  142.0109  132.8370 O   0  0  0  0  0  0  0  0  0  0  0  0
  128.9263  142.7456  134.1559 C   0  0  1  0  0  0  0  0  0  0  0  0
  128.4120  142.6533  132.7387 C   0  0  0  0  0  0  0  0  0  0  0  0
  128.9437  144.1519  134.6710 C   0  0  1  0  0  0  0  0  0  0  0  0
  129.3034  145.1341  133.5720 C   0  0  0  0  0  0  0  0  0  0  0  0
  129.4320  146.5273  134.1209 C   0  0  0  0  0  0  0  0  0  0  0  0
  128.1376  146.9194  134.7353 C   0  0  1  0  0  0  0  0  0  0  0  0
  127.0312  146.9158  133.7188 C   0  0  0  0  0  0  0  0  0  0  0  0
  128.1777  148.1714  135.5567 C   0  0  1  0  0  0  0  0  0  0  0  0
  127.9589  149.4273  134.8076 C   0  0  2  0  0  0  0  0  0  0  0  0
  129.0554  150.3853  135.2253 C   0  0  0  0  0  0  0  0  0  0  0  0
  126.5837  149.9050  135.2228 C   0  0  2  0  0  0  0  0  0  0  0  0
  125.7518  150.1216  133.9825 C   0  0  0  0  0  0  0  0  0  0  0  0
  125.2875  151.5450  133.8198 C   0  0  0  0  0  0  0  0  0  0  0  0
  126.4538  152.4308  134.2040 C   0  0  1  0  0  0  0  0  0  0  0  0
  126.0517  153.8874  133.9924 C   0  0  0  0  0  0  0  0  0  0  0  0
  126.7452  152.1988  135.6448 C   0  0  0  0  0  0  0  0  0  0  0  0
  126.5895  150.9371  136.1047 O   0  0  0  0  0  0  0  0  0  0  0  0
  125.9812  148.8062  135.8822 O   0  0  0  0  0  0  0  0  0  0  0  0
  1  2  1  6
  3  2  1  6
  3  4  1  0
  4  5  1  1
  5  6  1  0
  6  7  2  0
  7  8  1  0
  8  9  1  0
  9 10  1  6
  9 11  1  0
 11 12  1  0
 12 13  1  6
 12 14  1  0
 14 15  1  6
 14 16  1  0
 16 17  1  6
 17 18  1  0
 18 19  1  0
 19 20  1  6
 19 21  1  0
 21 22  1  0
 22 23  1  1
 22 24  1  0
 24 25  1  6
 25 26  1  0
 26 27  1  0
 27 28  1  1
 27 29  1  0
 29 30  1  0
 24 31  1  0
 21  1  1  1
 30 24  1  0
 31  1  1  0
 19  3  1  0
 16  4  1  0
 14  7  1  0
M  END
$$$$
