
     RDKit          3D

 31 36  0  0  0  0  0  0  0  0999 V2000
  102.9290  165.1019  161.5322 C   0  0  1  0  0  0  0  0  0  0  0  0
  104.3880  165.2936  161.0892 C   0  0  0  0  0  0  0  0  0  0  0  0
  104.3816  166.6846  160.5812 C   0  0  1  0  0  0  0  0  0  0  0  0
  105.5104  167.0827  159.7103 C   0  0  2  0  0  0  0  0  0  0  0  0
  106.7590  167.1413  160.5587 C   0  0  0  0  0  0  0  0  0  0  0  0
  107.8635  167.6765  159.7248 C   0  0  0  0  0  0  0  0  0  0  0  0
  107.6587  168.5284  158.7383 C   0  0  0  0  0  0  0  0  0  0  0  0
  108.8355  169.0051  157.9621 C   0  0  0  0  0  0  0  0  0  0  0  0
  108.8538  170.5121  158.0649 C   0  0  1  0  0  0  0  0  0  0  0  0
  108.7944  171.1420  156.8334 O   0  0  0  0  0  0  0  0  0  0  0  0
  107.7335  171.0382  158.9222 C   0  0  0  0  0  0  0  0  0  0  0  0
  106.3770  170.5629  158.4749 C   0  0  1  0  0  0  0  0  0  0  0  0
  105.9597  171.1854  157.3025 O   0  0  0  0  0  0  0  0  0  0  0  0
  106.3180  169.0409  158.3561 C   0  0  1  0  0  0  0  0  0  0  0  0
  106.0975  168.7362  156.8933 C   0  0  0  0  0  0  0  0  0  0  0  0
  105.2247  168.5028  159.2270 C   0  0  1  0  0  0  0  0  0  0  0  0
  103.8776  168.5934  158.5349 C   0  0  0  0  0  0  0  0  0  0  0  0
  102.7725  168.1599  159.4567 C   0  0  0  0  0  0  0  0  0  0  0  0
  103.0237  166.7571  159.8760 C   0  0  1  0  0  0  0  0  0  0  0  0
  103.0380  165.8313  158.6926 C   0  0  0  0  0  0  0  0  0  0  0  0
  102.1611  166.2650  160.9973 C   0  0  1  0  0  0  0  0  0  0  0  0
  100.8628  165.6860  160.5903 C   0  0  2  0  0  0  0  0  0  0  0  0
   99.8039  166.3199  161.4685 C   0  0  0  0  0  0  0  0  0  0  0  0
  100.9977  164.1972  160.8291 C   0  0  2  0  0  0  0  0  0  0  0  0
  100.6574  163.4696  159.5516 C   0  0  0  0  0  0  0  0  0  0  0  0
   99.4768  162.5448  159.6912 C   0  0  0  0  0  0  0  0  0  0  0  0
   98.4498  163.2727  160.5325 C   0  0  1  0  0  0  0  0  0  0  0  0
   97.2045  162.3986  160.6479 C   0  0  0  0  0  0  0  0  0  0  0  0
   99.0367  163.4843  161.8835 C   0  0  0  0  0  0  0  0  0  0  0  0
  100.3618  163.7460  161.9404 O   0  0  0  0  0  0  0  0  0  0  0  0
  102.3808  163.9662  161.0263 O   0  0  0  0  0  0  0  0  0  0  0  0
  1  2  1  6
  3  2  1  6
  3  4  1  0
  4  5  1  1
  5  6  1  0
  6  7  2  0
  7  8  1  0
  8  9  1  0
  9 10  1  6
  9 11  1  0
 11 12  1  0
 12 13  1  6
 12 14  1  0
 14 15  1  6
 14 16  1  0
 16 17  1  6
 17 18  1  0
 18 19  1  0
 19 20  1  6
 19 21  1  0
 21 22  1  0
 22 23  1  1
 22 24  1  0
 24 25  1  6
 25 26  1  0
 26 27  1  0
 27 28  1  1
 27 29  1  0
 29 30  1  0
 24 31  1  0
 21  1  1  6
 30 24  1  0
 31  1  1  0
 19  3  1  0
 16  4  1  0
 14  7  1  0
M  END
$$$$
