
     RDKit          3D

 31 36  0  0  0  0  0  0  0  0999 V2000
  164.7257  147.3112  125.0717 C   0  0  1  0  0  0  0  0  0  0  0  0
  166.1405  147.8008  125.4188 C   0  0  0  0  0  0  0  0  0  0  0  0
  165.9383  148.4308  126.7437 C   0  0  1  0  0  0  0  0  0  0  0  0
  166.9937  149.3578  127.2104 C   0  0  2  0  0  0  0  0  0  0  0  0
  168.2300  148.5451  127.5156 C   0  0  0  0  0  0  0  0  0  0  0  0
  169.2429  149.4470  128.1176 C   0  0  0  0  0  0  0  0  0  0  0  0
  168.9140  150.5010  128.8398 C   0  0  0  0  0  0  0  0  0  0  0  0
  170.0071  151.3418  129.3993 C   0  0  0  0  0  0  0  0  0  0  0  0
  169.8190  151.3745  130.8977 C   0  0  1  0  0  0  0  0  0  0  0  0
  169.6624  152.6558  131.3984 O   0  0  0  0  0  0  0  0  0  0  0  0
  168.6447  150.5437  131.3427 C   0  0  0  0  0  0  0  0  0  0  0  0
  167.3625  150.9176  130.6484 C   0  0  1  0  0  0  0  0  0  0  0  0
  166.8530  152.1317  131.0984 O   0  0  0  0  0  0  0  0  0  0  0  0
  167.5122  150.8986  129.1281 C   0  0  1  0  0  0  0  0  0  0  0  0
  167.3225  152.3232  128.6637 C   0  0  0  0  0  0  0  0  0  0  0  0
  166.5112  149.9598  128.5281 C   0  0  1  0  0  0  0  0  0  0  0  0
  165.1582  150.6281  128.3709 C   0  0  0  0  0  0  0  0  0  0  0  0
  164.1316  149.6477  127.8772 C   0  0  0  0  0  0  0  0  0  0  0  0
  164.5770  149.1103  126.5659 C   0  0  1  0  0  0  0  0  0  0  0  0
  164.7078  150.2062  125.5463 C   0  0  0  0  0  0  0  0  0  0  0  0
  163.8003  147.9312  126.0656 C   0  0  1  0  0  0  0  0  0  0  0  0
  162.5904  148.2569  125.2806 C   0  0  2  0  0  0  0  0  0  0  0  0
  161.4623  147.4163  125.8421 C   0  0  0  0  0  0  0  0  0  0  0  0
  162.9308  147.8890  123.8521 C   0  0  2  0  0  0  0  0  0  0  0  0
  162.6822  149.0887  122.9712 C   0  0  0  0  0  0  0  0  0  0  0  0
  161.6413  148.8418  121.9111 C   0  0  0  0  0  0  0  0  0  0  0  0
  160.5316  148.0470  122.5663 C   0  0  1  0  0  0  0  0  0  0  0  0
  159.4193  147.8272  121.5451 C   0  0  0  0  0  0  0  0  0  0  0  0
  161.0960  146.7332  122.9785 C   0  0  0  0  0  0  0  0  0  0  0  0
  162.3730  146.7284  123.4222 O   0  0  0  0  0  0  0  0  0  0  0  0
  164.3342  147.7016  123.8305 O   0  0  0  0  0  0  0  0  0  0  0  0
  1  2  1  1
  3  2  1  6
  3  4  1  0
  4  5  1  1
  5  6  1  0
  6  7  2  0
  7  8  1  0
  8  9  1  0
  9 10  1  6
  9 11  1  0
 11 12  1  0
 12 13  1  1
 12 14  1  0
 14 15  1  6
 14 16  1  0
 16 17  1  6
 17 18  1  0
 18 19  1  0
 19 20  1  6
 19 21  1  0
 21 22  1  0
 22 23  1  1
 22 24  1  0
 24 25  1  6
 25 26  1  0
 26 27  1  0
 27 28  1  6
 27 29  1  0
 29 30  1  0
 24 31  1  0
 21  1  1  6
 30 24  1  0
 31  1  1  0
 19  3  1  0
 16  4  1  0
 14  7  1  0
M  END
$$$$
