
     RDKit          3D

 31 36  0  0  0  0  0  0  0  0999 V2000
  165.5335  154.1378  125.2929 C   0  0  1  0  0  0  0  0  0  0  0  0
  166.6062  153.0411  125.2029 C   0  0  0  0  0  0  0  0  0  0  0  0
  166.1755  152.0935  126.2563 C   0  0  1  0  0  0  0  0  0  0  0  0
  167.1827  151.1169  126.7284 C   0  0  2  0  0  0  0  0  0  0  0  0
  167.4423  150.1340  125.6110 C   0  0  0  0  0  0  0  0  0  0  0  0
  168.3416  149.0716  126.1253 C   0  0  0  0  0  0  0  0  0  0  0  0
  168.3443  148.6956  127.3899 C   0  0  0  0  0  0  0  0  0  0  0  0
  169.2858  147.6200  127.8041 C   0  0  0  0  0  0  0  0  0  0  0  0
  168.4556  146.5121  128.4083 C   0  0  1  0  0  0  0  0  0  0  0  0
  168.8070  146.2201  129.7153 O   0  0  0  0  0  0  0  0  0  0  0  0
  166.9819  146.8186  128.3697 C   0  0  0  0  0  0  0  0  0  0  0  0
  166.6379  148.1365  129.0108 C   0  0  1  0  0  0  0  0  0  0  0  0
  166.7344  148.0898  130.3981 O   0  0  0  0  0  0  0  0  0  0  0  0
  167.4597  149.2848  128.4275 C   0  0  1  0  0  0  0  0  0  0  0  0
  168.3295  149.7991  129.5502 C   0  0  0  0  0  0  0  0  0  0  0  0
  166.5475  150.3378  127.8779 C   0  0  1  0  0  0  0  0  0  0  0  0
  166.0579  151.2656  128.9739 C   0  0  0  0  0  0  0  0  0  0  0  0
  165.0543  152.2465  128.4356 C   0  0  0  0  0  0  0  0  0  0  0  0
  165.6962  153.0431  127.3586 C   0  0  1  0  0  0  0  0  0  0  0  0
  166.8731  153.8160  127.8830 C   0  0  0  0  0  0  0  0  0  0  0  0
  164.7591  153.8801  126.5429 C   0  0  1  0  0  0  0  0  0  0  0  0
  164.4821  155.2286  127.0823 C   0  0  2  0  0  0  0  0  0  0  0  0
  162.9789  155.4133  127.0539 C   0  0  0  0  0  0  0  0  0  0  0  0
  165.2004  156.1848  126.1542 C   0  0  2  0  0  0  0  0  0  0  0  0
  166.1069  157.0678  126.9763 C   0  0  0  0  0  0  0  0  0  0  0  0
  165.7654  158.5309  126.8716 C   0  0  0  0  0  0  0  0  0  0  0  0
  164.2549  158.6297  126.9045 C   0  0  1  0  0  0  0  0  0  0  0  0
  163.8605  160.1032  126.8664 C   0  0  0  0  0  0  0  0  0  0  0  0
  163.7281  157.9417  125.6947 C   0  0  0  0  0  0  0  0  0  0  0  0
  164.3901  156.8375  125.2822 O   0  0  0  0  0  0  0  0  0  0  0  0
  166.0729  155.3818  125.3801 O   0  0  0  0  0  0  0  0  0  0  0  0
  1  2  1  1
  3  2  1  6
  3  4  1  0
  4  5  1  6
  5  6  1  0
  6  7  2  0
  7  8  1  0
  8  9  1  0
  9 10  1  1
  9 11  1  0
 11 12  1  0
 12 13  1  1
 12 14  1  0
 14 15  1  1
 14 16  1  0
 16 17  1  1
 17 18  1  0
 18 19  1  0
 19 20  1  1
 19 21  1  0
 21 22  1  0
 22 23  1  6
 22 24  1  0
 24 25  1  1
 25 26  1  0
 26 27  1  0
 27 28  1  6
 27 29  1  0
 29 30  1  0
 24 31  1  0
 21  1  1  6
 30 24  1  0
 31  1  1  0
 19  3  1  0
 16  4  1  0
 14  7  1  0
M  END
$$$$
