
     RDKit          3D

 31 36  0  0  0  0  0  0  0  0999 V2000
  128.4281  164.4839  147.5278 C   0  0  1  0  0  0  0  0  0  0  0  0
  126.9635  164.0969  147.7864 C   0  0  0  0  0  0  0  0  0  0  0  0
  126.2768  165.4075  147.7233 C   0  0  1  0  0  0  0  0  0  0  0  0
  124.9220  165.4807  148.3152 C   0  0  2  0  0  0  0  0  0  0  0  0
  123.9861  164.6756  147.4445 C   0  0  0  0  0  0  0  0  0  0  0  0
  122.6038  164.8616  147.9510 C   0  0  0  0  0  0  0  0  0  0  0  0
  122.2099  165.9714  148.5460 C   0  0  0  0  0  0  0  0  0  0  0  0
  120.8010  166.0571  149.0178 C   0  0  0  0  0  0  0  0  0  0  0  0
  120.1804  167.2590  148.3456 C   0  0  1  0  0  0  0  0  0  0  0  0
  119.6961  168.1948  149.2439 O   0  0  0  0  0  0  0  0  0  0  0  0
  121.1399  167.9485  147.4124 C   0  0  0  0  0  0  0  0  0  0  0  0
  122.4339  168.3341  148.0781 C   0  0  1  0  0  0  0  0  0  0  0  0
  122.2813  169.4130  148.9435 O   0  0  0  0  0  0  0  0  0  0  0  0
  123.0931  167.1438  148.7729 C   0  0  1  0  0  0  0  0  0  0  0  0
  123.0884  167.4572  150.2505 C   0  0  0  0  0  0  0  0  0  0  0  0
  124.4748  166.9385  148.2328 C   0  0  1  0  0  0  0  0  0  0  0  0
  125.4704  167.8636  148.9074 C   0  0  0  0  0  0  0  0  0  0  0  0
  126.8304  167.7340  148.2809 C   0  0  0  0  0  0  0  0  0  0  0  0
  127.2864  166.3269  148.4175 C   0  0  1  0  0  0  0  0  0  0  0  0
  127.3956  165.9296  149.8624 C   0  0  0  0  0  0  0  0  0  0  0  0
  128.5016  165.9722  147.6166 C   0  0  1  0  0  0  0  0  0  0  0  0
  129.7963  166.2323  148.2817 C   0  0  2  0  0  0  0  0  0  0  0  0
  130.6615  166.9752  147.2848 C   0  0  0  0  0  0  0  0  0  0  0  0
  130.3505  164.8657  148.6238 C   0  0  2  0  0  0  0  0  0  0  0  0
  130.6688  164.8279  150.0984 C   0  0  0  0  0  0  0  0  0  0  0  0
  132.1255  164.5752  150.3854 C   0  0  0  0  0  0  0  0  0  0  0  0
  132.9153  165.3923  149.3849 C   0  0  1  0  0  0  0  0  0  0  0  0
  134.4026  165.2194  149.6782 C   0  0  0  0  0  0  0  0  0  0  0  0
  132.6109  164.8655  148.0268 C   0  0  0  0  0  0  0  0  0  0  0  0
  131.3465  164.4416  147.8046 O   0  0  0  0  0  0  0  0  0  0  0  0
  129.2715  163.9639  148.4575 O   0  0  0  0  0  0  0  0  0  0  0  0
  1  2  1  1
  3  2  1  1
  3  4  1  0
  4  5  1  6
  5  6  1  0
  6  7  2  0
  7  8  1  0
  8  9  1  0
  9 10  1  1
  9 11  1  0
 11 12  1  0
 12 13  1  1
 12 14  1  0
 14 15  1  1
 14 16  1  0
 16 17  1  1
 17 18  1  0
 18 19  1  0
 19 20  1  1
 19 21  1  0
 21 22  1  0
 22 23  1  6
 22 24  1  0
 24 25  1  1
 25 26  1  0
 26 27  1  0
 27 28  1  1
 27 29  1  0
 29 30  1  0
 24 31  1  0
 21  1  1  1
 30 24  1  0
 31  1  1  0
 19  3  1  0
 16  4  1  0
 14  7  1  0
M  END
$$$$
