
     RDKit          3D

 31 36  0  0  0  0  0  0  0  0999 V2000
  128.4688  166.1945  146.6950 C   0  0  1  0  0  0  0  0  0  0  0  0
  129.4922  166.3723  145.5624 C   0  0  0  0  0  0  0  0  0  0  0  0
  130.1418  167.6529  145.9245 C   0  0  1  0  0  0  0  0  0  0  0  0
  130.9016  168.3416  144.8569 C   0  0  2  0  0  0  0  0  0  0  0  0
  132.1344  167.5221  144.5558 C   0  0  0  0  0  0  0  0  0  0  0  0
  132.9708  168.2774  143.5905 C   0  0  0  0  0  0  0  0  0  0  0  0
  132.9915  169.5960  143.5500 C   0  0  0  0  0  0  0  0  0  0  0  0
  133.8655  170.2572  142.5431 C   0  0  0  0  0  0  0  0  0  0  0  0
  134.8110  171.1593  143.3006 C   0  0  1  0  0  0  0  0  0  0  0  0
  134.7215  172.4865  142.9163 O   0  0  0  0  0  0  0  0  0  0  0  0
  134.6030  171.0809  144.7897 C   0  0  0  0  0  0  0  0  0  0  0  0
  133.1808  171.3542  145.2005 C   0  0  1  0  0  0  0  0  0  0  0  0
  132.8468  172.7000  145.0837 O   0  0  0  0  0  0  0  0  0  0  0  0
  132.1912  170.4616  144.4535 C   0  0  1  0  0  0  0  0  0  0  0  0
  131.3491  171.3804  143.6003 C   0  0  0  0  0  0  0  0  0  0  0  0
  131.3739  169.6751  145.4316 C   0  0  1  0  0  0  0  0  0  0  0  0
  130.2117  170.4952  145.9595 C   0  0  0  0  0  0  0  0  0  0  0  0
  129.4655  169.7416  147.0245 C   0  0  0  0  0  0  0  0  0  0  0  0
  128.9565  168.4728  146.4432 C   0  0  1  0  0  0  0  0  0  0  0  0
  128.0109  168.7377  145.3060 C   0  0  0  0  0  0  0  0  0  0  0  0
  128.4199  167.4889  147.4372 C   0  0  1  0  0  0  0  0  0  0  0  0
  126.9921  167.6541  147.7842 C   0  0  2  0  0  0  0  0  0  0  0  0
  126.9000  167.6190  149.2958 C   0  0  0  0  0  0  0  0  0  0  0  0
  126.2856  166.4839  147.1338 C   0  0  2  0  0  0  0  0  0  0  0  0
  125.1680  167.0134  146.2690 C   0  0  0  0  0  0  0  0  0  0  0  0
  123.8069  166.5295  146.6952 C   0  0  0  0  0  0  0  0  0  0  0  0
  123.7813  166.5766  148.2083 C   0  0  1  0  0  0  0  0  0  0  0  0
  122.3950  166.1556  148.6870 C   0  0  0  0  0  0  0  0  0  0  0  0
  124.7961  165.6109  148.7103 C   0  0  0  0  0  0  0  0  0  0  0  0
  125.9348  165.4916  147.9914 O   0  0  0  0  0  0  0  0  0  0  0  0
  127.2211  165.9297  146.2267 O   0  0  0  0  0  0  0  0  0  0  0  0
  1  2  1  6
  3  2  1  6
  3  4  1  0
  4  5  1  1
  5  6  1  0
  6  7  2  0
  7  8  1  0
  8  9  1  0
  9 10  1  6
  9 11  1  0
 11 12  1  0
 12 13  1  6
 12 14  1  0
 14 15  1  6
 14 16  1  0
 16 17  1  6
 17 18  1  0
 18 19  1  0
 19 20  1  6
 19 21  1  0
 21 22  1  0
 22 23  1  1
 22 24  1  0
 24 25  1  6
 25 26  1  0
 26 27  1  0
 27 28  1  1
 27 29  1  0
 29 30  1  0
 24 31  1  0
 21  1  1  6
 30 24  1  0
 31  1  1  0
 19  3  1  0
 16  4  1  0
 14  7  1  0
M  END
$$$$
