
     RDKit          3D

 31 36  0  0  0  0  0  0  0  0999 V2000
  113.4090  165.2241  141.7211 C   0  0  1  0  0  0  0  0  0  0  0  0
  114.1482  165.3704  143.0605 C   0  0  0  0  0  0  0  0  0  0  0  0
  113.9293  166.7986  143.3855 C   0  0  1  0  0  0  0  0  0  0  0  0
  114.8252  167.3975  144.4002 C   0  0  2  0  0  0  0  0  0  0  0  0
  114.4866  166.7901  145.7413 C   0  0  0  0  0  0  0  0  0  0  0  0
  115.2812  167.4880  146.7822 C   0  0  0  0  0  0  0  0  0  0  0  0
  115.6449  168.7511  146.6685 C   0  0  0  0  0  0  0  0  0  0  0  0
  116.4412  169.3578  147.7698 C   0  0  0  0  0  0  0  0  0  0  0  0
  115.6694  170.5576  148.2663 C   0  0  1  0  0  0  0  0  0  0  0  0
  116.3845  171.7398  148.1753 O   0  0  0  0  0  0  0  0  0  0  0  0
  114.3630  170.7354  147.5392 C   0  0  0  0  0  0  0  0  0  0  0  0
  114.5259  170.8028  146.0442 C   0  0  1  0  0  0  0  0  0  0  0  0
  115.0825  172.0081  145.6276 O   0  0  0  0  0  0  0  0  0  0  0  0
  115.3050  169.6056  145.5022 C   0  0  1  0  0  0  0  0  0  0  0  0
  116.5906  170.1568  144.9324 C   0  0  0  0  0  0  0  0  0  0  0  0
  114.4845  168.8839  144.4778 C   0  0  1  0  0  0  0  0  0  0  0  0
  114.5937  169.5503  143.1192 C   0  0  0  0  0  0  0  0  0  0  0  0
  113.6792  168.8911  142.1251 C   0  0  0  0  0  0  0  0  0  0  0  0
  114.0544  167.4585  142.0088 C   0  0  1  0  0  0  0  0  0  0  0  0
  115.4669  167.3053  141.5203 C   0  0  0  0  0  0  0  0  0  0  0  0
  113.0773  166.6047  141.2602 C   0  0  1  0  0  0  0  0  0  0  0  0
  113.2727  166.5547  139.7954 C   0  0  2  0  0  0  0  0  0  0  0  0
  111.9187  166.8010  139.1625 C   0  0  0  0  0  0  0  0  0  0  0  0
  113.8005  165.1647  139.5107 C   0  0  2  0  0  0  0  0  0  0  0  0
  115.0887  165.2860  138.7342 C   0  0  0  0  0  0  0  0  0  0  0  0
  115.0258  164.6406  137.3748 C   0  0  0  0  0  0  0  0  0  0  0  0
  113.6694  164.9793  136.7935 C   0  0  1  0  0  0  0  0  0  0  0  0
  113.5829  164.3998  135.3847 C   0  0  0  0  0  0  0  0  0  0  0  0
  112.6347  164.3473  137.6564 C   0  0  0  0  0  0  0  0  0  0  0  0
  112.8844  164.3121  138.9846 O   0  0  0  0  0  0  0  0  0  0  0  0
  114.1781  164.6350  140.7685 O   0  0  0  0  0  0  0  0  0  0  0  0
  1  2  1  1
  3  2  1  6
  3  4  1  0
  4  5  1  1
  5  6  1  0
  6  7  2  0
  7  8  1  0
  8  9  1  0
  9 10  1  6
  9 11  1  0
 11 12  1  0
 12 13  1  1
 12 14  1  0
 14 15  1  6
 14 16  1  0
 16 17  1  6
 17 18  1  0
 18 19  1  0
 19 20  1  6
 19 21  1  0
 21 22  1  0
 22 23  1  6
 22 24  1  0
 24 25  1  6
 25 26  1  0
 26 27  1  0
 27 28  1  6
 27 29  1  0
 29 30  1  0
 24 31  1  0
 21  1  1  1
 30 24  1  0
 31  1  1  0
 19  3  1  0
 16  4  1  0
 14  7  1  0
M  END
$$$$
