
     RDKit          3D

 31 36  0  0  0  0  0  0  0  0999 V2000
  127.0371  146.2672  132.8360 C   0  0  1  0  0  0  0  0  0  0  0  0
  127.8158  145.2244  132.0188 C   0  0  0  0  0  0  0  0  0  0  0  0
  127.7092  144.0163  132.8686 C   0  0  1  0  0  0  0  0  0  0  0  0
  128.6697  142.9228  132.5984 C   0  0  2  0  0  0  0  0  0  0  0  0
  128.3188  142.3102  131.2628 C   0  0  0  0  0  0  0  0  0  0  0  0
  129.1860  141.1246  131.0524 C   0  0  0  0  0  0  0  0  0  0  0  0
  129.6382  140.3906  132.0511 C   0  0  0  0  0  0  0  0  0  0  0  0
  130.5017  139.2212  131.7326 C   0  0  0  0  0  0  0  0  0  0  0  0
  129.8313  138.0016  132.3197 C   0  0  1  0  0  0  0  0  0  0  0  0
  130.6283  137.3279  133.2296 O   0  0  0  0  0  0  0  0  0  0  0  0
  128.5248  138.3364  132.9890 C   0  0  0  0  0  0  0  0  0  0  0  0
  128.6576  139.4118  134.0340 C   0  0  1  0  0  0  0  0  0  0  0  0
  129.2909  138.9538  135.1853 O   0  0  0  0  0  0  0  0  0  0  0  0
  129.3345  140.6639  133.4792 C   0  0  1  0  0  0  0  0  0  0  0  0
  130.6434  140.8040  134.2198 C   0  0  0  0  0  0  0  0  0  0  0  0
  128.4402  141.8513  133.6619 C   0  0  1  0  0  0  0  0  0  0  0  0
  128.5663  142.4225  135.0618 C   0  0  0  0  0  0  0  0  0  0  0  0
  127.5834  143.5396  135.2742 C   0  0  0  0  0  0  0  0  0  0  0  0
  127.8503  144.6062  134.2753 C   0  0  1  0  0  0  0  0  0  0  0  0
  129.2363  145.1641  134.4341 C   0  0  0  0  0  0  0  0  0  0  0  0
  126.7965  145.6667  134.1814 C   0  0  1  0  0  0  0  0  0  0  0  0
  126.9538  146.8001  135.1178 C   0  0  2  0  0  0  0  0  0  0  0  0
  125.6071  147.0162  135.7768 C   0  0  0  0  0  0  0  0  0  0  0  0
  127.3721  147.9732  134.2573 C   0  0  2  0  0  0  0  0  0  0  0  0
  128.6475  148.5537  134.8175 C   0  0  0  0  0  0  0  0  0  0  0  0
  128.5063  149.9889  135.2519 C   0  0  0  0  0  0  0  0  0  0  0  0
  127.1651  150.1049  135.9448 C   0  0  1  0  0  0  0  0  0  0  0  0
  127.0041  151.5313  136.4621 C   0  0  0  0  0  0  0  0  0  0  0  0
  126.1073  149.8177  134.9383 C   0  0  0  0  0  0  0  0  0  0  0  0
  126.3844  148.8719  134.0129 O   0  0  0  0  0  0  0  0  0  0  0  0
  127.7391  147.4179  133.0074 O   0  0  0  0  0  0  0  0  0  0  0  0
  1  2  1  6
  3  2  1  6
  3  4  1  0
  4  5  1  6
  5  6  1  0
  6  7  2  0
  7  8  1  0
  8  9  1  0
  9 10  1  1
  9 11  1  0
 11 12  1  0
 12 13  1  1
 12 14  1  0
 14 15  1  1
 14 16  1  0
 16 17  1  1
 17 18  1  0
 18 19  1  0
 19 20  1  1
 19 21  1  0
 21 22  1  0
 22 23  1  6
 22 24  1  0
 24 25  1  1
 25 26  1  0
 26 27  1  0
 27 28  1  6
 27 29  1  0
 29 30  1  0
 24 31  1  0
 21  1  1  6
 30 24  1  0
 31  1  1  0
 19  3  1  0
 16  4  1  0
 14  7  1  0
M  END
$$$$
