
     RDKit          3D

 31 36  0  0  0  0  0  0  0  0999 V2000
  164.1018  148.2696  124.5555 C   0  0  1  0  0  0  0  0  0  0  0  0
  165.2385  149.2695  124.8199 C   0  0  0  0  0  0  0  0  0  0  0  0
  165.5559  149.0145  126.2437 C   0  0  1  0  0  0  0  0  0  0  0  0
  166.3264  150.0601  126.9538 C   0  0  2  0  0  0  0  0  0  0  0  0
  167.7288  150.0717  126.3921 C   0  0  0  0  0  0  0  0  0  0  0  0
  168.5439  151.0166  127.1950 C   0  0  0  0  0  0  0  0  0  0  0  0
  168.3103  151.2456  128.4732 C   0  0  0  0  0  0  0  0  0  0  0  0
  169.1869  152.2124  129.1883 C   0  0  0  0  0  0  0  0  0  0  0  0
  169.8016  151.4753  130.3547 C   0  0  1  0  0  0  0  0  0  0  0  0
  169.5150  152.0573  131.5779 O   0  0  0  0  0  0  0  0  0  0  0  0
  169.3764  150.0318  130.4042 C   0  0  0  0  0  0  0  0  0  0  0  0
  167.8811  149.8584  130.4079 C   0  0  1  0  0  0  0  0  0  0  0  0
  167.3115  150.2135  131.6268 O   0  0  0  0  0  0  0  0  0  0  0  0
  167.2203  150.5926  129.2424 C   0  0  1  0  0  0  0  0  0  0  0  0
  166.3618  151.6750  129.8529 C   0  0  0  0  0  0  0  0  0  0  0  0
  166.4278  149.6281  128.4149 C   0  0  1  0  0  0  0  0  0  0  0  0
  165.0572  149.3849  129.0184 C   0  0  0  0  0  0  0  0  0  0  0  0
  164.3130  148.3305  128.2480 C   0  0  0  0  0  0  0  0  0  0  0  0
  164.1644  148.7834  126.8411 C   0  0  1  0  0  0  0  0  0  0  0  0
  163.3806  150.0628  126.7626 C   0  0  0  0  0  0  0  0  0  0  0  0
  163.6799  147.7372  125.8848 C   0  0  1  0  0  0  0  0  0  0  0  0
  162.2107  147.6113  125.7752 C   0  0  2  0  0  0  0  0  0  0  0  0
  161.8855  146.1367  125.8944 C   0  0  0  0  0  0  0  0  0  0  0  0
  161.8628  148.1726  124.4130 C   0  0  2  0  0  0  0  0  0  0  0  0
  160.8166  149.2464  124.5850 C   0  0  0  0  0  0  0  0  0  0  0  0
  159.5273  148.9395  123.8695 C   0  0  0  0  0  0  0  0  0  0  0  0
  159.2499  147.4665  124.0831 C   0  0  1  0  0  0  0  0  0  0  0  0
  157.9154  147.1206  123.4292 C   0  0  0  0  0  0  0  0  0  0  0  0
  160.3412  146.6985  123.4244 C   0  0  0  0  0  0  0  0  0  0  0  0
  161.5814  147.2341  123.4732 O   0  0  0  0  0  0  0  0  0  0  0  0
  163.0227  148.8564  123.9746 O   0  0  0  0  0  0  0  0  0  0  0  0
  1  2  1  1
  3  2  1  6
  3  4  1  0
  4  5  1  6
  5  6  1  0
  6  7  2  0
  7  8  1  0
  8  9  1  0
  9 10  1  1
  9 11  1  0
 11 12  1  0
 12 13  1  1
 12 14  1  0
 14 15  1  1
 14 16  1  0
 16 17  1  1
 17 18  1  0
 18 19  1  0
 19 20  1  1
 19 21  1  0
 21 22  1  0
 22 23  1  6
 22 24  1  0
 24 25  1  1
 25 26  1  0
 26 27  1  0
 27 28  1  6
 27 29  1  0
 29 30  1  0
 24 31  1  0
 21  1  1  6
 30 24  1  0
 31  1  1  0
 19  3  1  0
 16  4  1  0
 14  7  1  0
M  END
$$$$
