
     RDKit          3D

 39 44  0  0  0  0  0  0  0  0999 V2000
  207.7950  127.4113  132.9215 C   0  0  0  0  0  0  0  0  0  0  0  0
  206.9259  128.2481  132.2347 O   0  0  0  0  0  0  0  0  0  0  0  0
  207.1130  129.5516  132.6240 C   0  0  2  0  0  0  0  0  0  0  0  0
  208.5624  129.8065  133.0575 C   0  0  1  0  0  0  0  0  0  0  0  0
  209.3932  129.6590  131.9558 O   0  0  0  0  0  0  0  0  0  0  0  0
  208.5961  131.2051  133.6311 C   0  0  2  0  0  0  0  0  0  0  0  0
  208.9699  131.1805  135.1025 C   0  0  0  0  0  0  0  0  0  0  0  0
  207.4241  131.8990  133.4021 O   0  0  0  0  0  0  0  0  0  0  0  0
  206.4243  131.3032  134.1644 C   0  0  1  0  0  0  0  0  0  0  0  0
  205.1987  131.9205  134.0199 O   0  0  0  0  0  0  0  0  0  0  0  0
  205.3034  133.2156  133.5158 C   0  0  1  0  0  0  0  0  0  0  0  0
  204.6282  133.2169  132.1629 C   0  0  0  0  0  0  0  0  0  0  0  0
  204.4886  134.6313  131.6477 C   0  0  0  0  0  0  0  0  0  0  0  0
  203.5405  135.3710  132.6044 C   0  0  1  0  0  0  0  0  0  0  0  0
  202.3753  134.4711  132.7829 C   0  0  0  0  0  0  0  0  0  0  0  0
  201.4411  134.3756  132.0368 O   0  0  0  0  0  0  0  0  0  0  0  0
  204.2629  135.4752  133.9134 C   0  0  2  0  0  0  0  0  0  0  0  0
  205.4842  136.3805  133.8319 C   0  0  0  0  0  0  0  0  0  0  0  0
  205.2563  137.5909  132.9759 C   0  0  0  0  0  0  0  0  0  0  0  0
  203.7692  137.8470  132.8929 C   0  0  2  0  0  0  0  0  0  0  0  0
  203.1658  136.7236  132.0961 C   0  0  2  0  0  0  0  0  0  0  0  0
  201.6844  136.9220  131.9065 C   0  0  0  0  0  0  0  0  0  0  0  0
  201.1460  138.1572  132.5150 C   0  0  0  0  0  0  0  0  0  0  0  0
  201.9679  139.3928  132.3127 C   0  0  2  0  0  0  0  0  0  0  0  0
  201.6270  140.3440  133.4499 C   0  0  0  0  0  0  0  0  0  0  0  0
  201.6455  140.1044  131.0195 C   0  0  2  0  0  0  0  0  0  0  0  0
  203.0088  140.6153  130.5169 C   0  0  0  0  0  0  0  0  0  0  0  0
  203.8695  139.3989  130.9129 C   0  0  0  0  0  0  0  0  0  0  0  0
  203.4352  139.1802  132.3104 C   0  0  2  0  0  0  0  0  0  0  0  0
  204.0962  140.1623  133.0922 O   0  0  0  0  0  0  0  0  0  0  0  0
  200.7152  141.2363  131.1684 C   0  0  0  0  0  0  0  0  0  0  0  0
  199.3804  141.2169  131.0669 C   0  0  0  0  0  0  0  0  0  0  0  0
  198.8463  142.5393  131.2812 C   0  0  0  0  0  0  0  0  0  0  0  0
  197.6458  142.9491  131.2718 O   0  0  0  0  0  0  0  0  0  0  0  0
  199.9108  143.3817  131.5206 O   0  0  0  0  0  0  0  0  0  0  0  0
  201.0867  142.6350  131.4826 C   0  0  0  0  0  0  0  0  0  0  0  0
  204.6987  134.1608  134.4873 C   0  0  0  0  0  0  0  0  0  0  0  0
  206.2561  129.8381  133.8281 C   0  0  1  0  0  0  0  0  0  0  0  0
  204.9331  129.5287  133.5201 O   0  0  0  0  0  0  0  0  0  0  0  0
  1  2  1  0
  3  2  1  1
  3  4  1  0
  4  5  1  6
  4  6  1  0
  6  7  1  1
  6  8  1  0
  8  9  1  0
  9 10  1  6
 11 10  1  1
 11 12  1  0
 12 13  1  0
 13 14  1  0
 14 15  1  1
 15 16  2  0
 14 17  1  0
 17 18  1  6
 18 19  1  0
 20 19  1  6
 20 21  1  0
 21 22  1  1
 22 23  1  0
 23 24  1  0
 24 25  1  1
 24 26  1  0
 26 27  1  0
 27 28  1  0
 28 29  1  0
 29 30  1  1
 26 31  1  1
 31 32  2  0
 32 33  1  0
 33 34  2  0
 33 35  1  0
 35 36  1  0
 17 37  1  0
  9 38  1  0
 38 39  1  6
 38  3  1  0
 37 11  1  0
 21 14  1  0
 29 24  1  0
 36 31  1  0
 29 20  1  0
M  END
$$$$
