
     RDKit          3D

 39 44  0  0  0  0  0  0  0  0999 V2000
  126.6628  154.0741  134.9527 C   0  0  0  0  0  0  0  0  0  0  0  0
  126.5633  153.3913  136.1573 O   0  0  0  0  0  0  0  0  0  0  0  0
  127.3565  152.2705  136.1360 C   0  0  2  0  0  0  0  0  0  0  0  0
  128.8413  152.6346  136.0077 C   0  0  1  0  0  0  0  0  0  0  0  0
  129.2387  153.3097  137.1531 O   0  0  0  0  0  0  0  0  0  0  0  0
  129.5841  151.3326  135.8100 C   0  0  2  0  0  0  0  0  0  0  0  0
  130.2661  151.2962  134.4540 C   0  0  0  0  0  0  0  0  0  0  0  0
  128.7812  150.2286  136.0199 O   0  0  0  0  0  0  0  0  0  0  0  0
  127.8477  150.1826  134.9894 C   0  0  1  0  0  0  0  0  0  0  0  0
  126.9874  149.1087  135.0912 O   0  0  0  0  0  0  0  0  0  0  0  0
  127.6540  147.9005  135.2869 C   0  0  1  0  0  0  0  0  0  0  0  0
  126.6068  146.8760  135.6615 C   0  0  0  0  0  0  0  0  0  0  0  0
  127.2073  145.4887  135.6633 C   0  0  0  0  0  0  0  0  0  0  0  0
  127.6235  145.1727  134.2182 C   0  0  1  0  0  0  0  0  0  0  0  0
  126.4533  145.5314  133.3807 C   0  0  0  0  0  0  0  0  0  0  0  0
  125.4403  144.8971  133.2810 O   0  0  0  0  0  0  0  0  0  0  0  0
  128.7456  146.1105  133.8902 C   0  0  2  0  0  0  0  0  0  0  0  0
  129.9988  145.8237  134.7056 C   0  0  0  0  0  0  0  0  0  0  0  0
  130.2475  144.3568  134.8956 C   0  0  0  0  0  0  0  0  0  0  0  0
  129.5279  143.6024  133.8016 C   0  0  2  0  0  0  0  0  0  0  0  0
  128.0526  143.7527  134.0506 C   0  0  2  0  0  0  0  0  0  0  0  0
  127.2460  142.9805  133.0392 C   0  0  0  0  0  0  0  0  0  0  0  0
  128.0518  142.2405  132.0448 C   0  0  0  0  0  0  0  0  0  0  0  0
  129.2359  141.5017  132.5880 C   0  0  2  0  0  0  0  0  0  0  0  0
  130.2260  141.3471  131.4435 C   0  0  0  0  0  0  0  0  0  0  0  0
  128.8875  140.1133  133.0717 C   0  0  2  0  0  0  0  0  0  0  0  0
  129.7552  139.9204  134.3293 C   0  0  0  0  0  0  0  0  0  0  0  0
  129.6380  141.3441  134.9093 C   0  0  0  0  0  0  0  0  0  0  0  0
  129.9311  142.1677  133.7155 C   0  0  2  0  0  0  0  0  0  0  0  0
  131.3387  142.1323  133.5420 O   0  0  0  0  0  0  0  0  0  0  0  0
  129.1765  139.0450  132.1002 C   0  0  0  0  0  0  0  0  0  0  0  0
  128.3190  138.4441  131.2660 C   0  0  0  0  0  0  0  0  0  0  0  0
  129.0053  137.4491  130.4793 C   0  0  0  0  0  0  0  0  0  0  0  0
  128.5649  136.6663  129.5835 O   0  0  0  0  0  0  0  0  0  0  0  0
  130.3293  137.4592  130.8632 O   0  0  0  0  0  0  0  0  0  0  0  0
  130.5007  138.4333  131.8448 C   0  0  0  0  0  0  0  0  0  0  0  0
  128.4086  147.5618  134.0546 C   0  0  0  0  0  0  0  0  0  0  0  0
  127.0182  151.4458  134.9228 C   0  0  1  0  0  0  0  0  0  0  0  0
  125.6533  151.1672  134.9371 O   0  0  0  0  0  0  0  0  0  0  0  0
  1  2  1  0
  3  2  1  6
  3  4  1  0
  4  5  1  1
  4  6  1  0
  6  7  1  6
  6  8  1  0
  8  9  1  0
  9 10  1  1
 11 10  1  6
 11 12  1  0
 12 13  1  0
 13 14  1  0
 14 15  1  6
 15 16  2  0
 14 17  1  0
 17 18  1  1
 18 19  1  0
 20 19  1  1
 20 21  1  0
 21 22  1  6
 22 23  1  0
 23 24  1  0
 24 25  1  6
 24 26  1  0
 26 27  1  0
 27 28  1  0
 28 29  1  0
 29 30  1  6
 26 31  1  6
 31 32  2  0
 32 33  1  0
 33 34  2  0
 33 35  1  0
 35 36  1  0
 17 37  1  0
  9 38  1  0
 38 39  1  1
 38  3  1  0
 37 11  1  0
 21 14  1  0
 29 24  1  0
 36 31  1  0
 29 20  1  0
M  END
$$$$
