
     RDKit          3D

 39 44  0  0  0  0  0  0  0  0999 V2000
  129.8132  134.5568  132.0443 C   0  0  0  0  0  0  0  0  0  0  0  0
  128.9972  135.4438  132.7331 O   0  0  0  0  0  0  0  0  0  0  0  0
  129.1512  136.7152  132.2375 C   0  0  2  0  0  0  0  0  0  0  0  0
  130.1722  136.7528  131.0930 C   0  0  1  0  0  0  0  0  0  0  0  0
  129.6712  136.0289  130.0203 O   0  0  0  0  0  0  0  0  0  0  0  0
  130.3885  138.2122  130.7624 C   0  0  2  0  0  0  0  0  0  0  0  0
  131.8250  138.6237  131.0321 C   0  0  0  0  0  0  0  0  0  0  0  0
  129.4814  139.0382  131.3968 O   0  0  0  0  0  0  0  0  0  0  0  0
  129.7646  139.0103  132.7586 C   0  0  1  0  0  0  0  0  0  0  0  0
  128.9189  139.8099  133.4998 O   0  0  0  0  0  0  0  0  0  0  0  0
  129.3450  141.1355  133.5595 C   0  0  1  0  0  0  0  0  0  0  0  0
  128.9228  141.7920  132.2645 C   0  0  0  0  0  0  0  0  0  0  0  0
  129.1363  143.2867  132.3401 C   0  0  0  0  0  0  0  0  0  0  0  0
  128.1915  143.8254  133.4257 C   0  0  1  0  0  0  0  0  0  0  0  0
  126.8674  143.2252  133.1329 C   0  0  0  0  0  0  0  0  0  0  0  0
  125.8957  143.8182  132.7552 O   0  0  0  0  0  0  0  0  0  0  0  0
  128.6863  143.2689  134.7263 C   0  0  2  0  0  0  0  0  0  0  0  0
  130.0492  143.8252  135.1147 C   0  0  0  0  0  0  0  0  0  0  0  0
  130.1978  145.2821  134.7906 C   0  0  0  0  0  0  0  0  0  0  0  0
  128.8198  145.8940  134.6877 C   0  0  2  0  0  0  0  0  0  0  0  0
  128.1649  145.3175  133.4630 C   0  0  2  0  0  0  0  0  0  0  0  0
  126.8000  145.9152  133.2403 C   0  0  0  0  0  0  0  0  0  0  0  0
  126.4025  146.9309  134.2385 C   0  0  0  0  0  0  0  0  0  0  0  0
  127.4603  147.9230  134.6125 C   0  0  2  0  0  0  0  0  0  0  0  0
  127.1113  148.4426  135.9991 C   0  0  0  0  0  0  0  0  0  0  0  0
  127.5003  149.1136  133.6832 C   0  0  2  0  0  0  0  0  0  0  0  0
  128.9998  149.4358  133.5430 C   0  0  0  0  0  0  0  0  0  0  0  0
  129.5411  147.9928  133.4987 C   0  0  0  0  0  0  0  0  0  0  0  0
  128.8417  147.3862  134.6529 C   0  0  2  0  0  0  0  0  0  0  0  0
  129.5289  147.8275  135.8129 O   0  0  0  0  0  0  0  0  0  0  0  0
  126.7829  150.2972  134.1865 C   0  0  0  0  0  0  0  0  0  0  0  0
  125.9244  151.0783  133.5194 C   0  0  0  0  0  0  0  0  0  0  0  0
  125.4429  152.1333  134.3768 C   0  0  0  0  0  0  0  0  0  0  0  0
  124.6263  153.0743  134.1380 O   0  0  0  0  0  0  0  0  0  0  0  0
  126.0419  151.9719  135.6078 O   0  0  0  0  0  0  0  0  0  0  0  0
  126.8639  150.8477  135.5589 C   0  0  0  0  0  0  0  0  0  0  0  0
  128.7679  141.7728  134.7694 C   0  0  0  0  0  0  0  0  0  0  0  0
  129.6981  137.6072  133.3199 C   0  0  1  0  0  0  0  0  0  0  0  0
  128.8564  137.5348  134.4277 O   0  0  0  0  0  0  0  0  0  0  0  0
  1  2  1  0
  3  2  1  1
  3  4  1  0
  4  5  1  6
  4  6  1  0
  6  7  1  1
  6  8  1  0
  8  9  1  0
  9 10  1  1
 11 10  1  6
 11 12  1  0
 12 13  1  0
 13 14  1  0
 14 15  1  6
 15 16  2  0
 14 17  1  0
 17 18  1  6
 18 19  1  0
 20 19  1  6
 20 21  1  0
 21 22  1  1
 22 23  1  0
 23 24  1  0
 24 25  1  1
 24 26  1  0
 26 27  1  0
 27 28  1  0
 28 29  1  0
 29 30  1  1
 26 31  1  1
 31 32  2  0
 32 33  1  0
 33 34  2  0
 33 35  1  0
 35 36  1  0
 17 37  1  0
  9 38  1  0
 38 39  1  1
 38  3  1  0
 37 11  1  0
 21 14  1  0
 29 24  1  0
 36 31  1  0
 29 20  1  0
M  END
$$$$
