
     RDKit          3D

 39 44  0  0  0  0  0  0  0  0999 V2000
  114.5387  171.9716  142.6322 C   0  0  0  0  0  0  0  0  0  0  0  0
  115.4838  172.5430  143.4733 O   0  0  0  0  0  0  0  0  0  0  0  0
  115.8355  171.6595  144.4640 C   0  0  2  0  0  0  0  0  0  0  0  0
  115.5981  172.2543  145.8581 C   0  0  1  0  0  0  0  0  0  0  0  0
  114.2353  172.4428  146.0398 O   0  0  0  0  0  0  0  0  0  0  0  0
  116.1888  171.2739  146.8461 C   0  0  2  0  0  0  0  0  0  0  0  0
  117.3372  171.9024  147.6152 C   0  0  0  0  0  0  0  0  0  0  0  0
  116.5492  170.0791  146.2543 O   0  0  0  0  0  0  0  0  0  0  0  0
  117.6340  170.3307  145.4204 C   0  0  1  0  0  0  0  0  0  0  0  0
  118.0886  169.1995  144.7742 O   0  0  0  0  0  0  0  0  0  0  0  0
  118.5810  168.2372  145.6539 C   0  0  1  0  0  0  0  0  0  0  0  0
  117.5879  167.0969  145.6593 C   0  0  0  0  0  0  0  0  0  0  0  0
  118.1557  165.9104  146.4045 C   0  0  0  0  0  0  0  0  0  0  0  0
  119.3754  165.4174  145.6104 C   0  0  1  0  0  0  0  0  0  0  0  0
  118.9220  165.3284  144.2012 C   0  0  0  0  0  0  0  0  0  0  0  0
  119.6329  165.2865  143.2361 O   0  0  0  0  0  0  0  0  0  0  0  0
  120.4058  166.5013  145.7086 C   0  0  2  0  0  0  0  0  0  0  0  0
  120.9340  166.6734  147.1260 C   0  0  0  0  0  0  0  0  0  0  0  0
  121.1135  165.3685  147.8435 C   0  0  0  0  0  0  0  0  0  0  0  0
  121.2455  164.2693  146.8148 C   0  0  2  0  0  0  0  0  0  0  0  0
  119.9103  164.1275  146.1380 C   0  0  2  0  0  0  0  0  0  0  0  0
  119.9245  163.0079  145.1299 C   0  0  0  0  0  0  0  0  0  0  0  0
  121.2119  162.2881  145.0277 C   0  0  0  0  0  0  0  0  0  0  0  0
  121.8777  161.9596  146.3284 C   0  0  2  0  0  0  0  0  0  0  0  0
  123.3641  161.8102  146.0410 C   0  0  0  0  0  0  0  0  0  0  0  0
  121.3998  160.6524  146.9163 C   0  0  2  0  0  0  0  0  0  0  0  0
  121.3491  160.9141  148.4332 C   0  0  0  0  0  0  0  0  0  0  0  0
  120.8150  162.3600  148.3985 C   0  0  0  0  0  0  0  0  0  0  0  0
  121.7118  162.9755  147.3954 C   0  0  2  0  0  0  0  0  0  0  0  0
  122.9403  163.2266  148.0590 O   0  0  0  0  0  0  0  0  0  0  0  0
  122.2827  159.5068  146.6392 C   0  0  0  0  0  0  0  0  0  0  0  0
  121.9373  158.3041  146.1634 C   0  0  0  0  0  0  0  0  0  0  0  0
  123.1039  157.4658  146.0365 C   0  0  0  0  0  0  0  0  0  0  0  0
  123.2124  156.2694  145.6289 O   0  0  0  0  0  0  0  0  0  0  0  0
  124.1908  158.2030  146.4556 O   0  0  0  0  0  0  0  0  0  0  0  0
  123.7520  159.4740  146.8215 C   0  0  0  0  0  0  0  0  0  0  0  0
  119.9443  167.8414  145.2208 C   0  0  0  0  0  0  0  0  0  0  0  0
  117.3107  171.3732  144.3733 C   0  0  1  0  0  0  0  0  0  0  0  0
  117.6007  170.9201  143.0882 O   0  0  0  0  0  0  0  0  0  0  0  0
  1  2  1  0
  3  2  1  6
  3  4  1  0
  4  5  1  1
  4  6  1  0
  6  7  1  6
  6  8  1  0
  8  9  1  0
  9 10  1  6
 11 10  1  6
 11 12  1  0
 12 13  1  0
 13 14  1  0
 14 15  1  6
 15 16  2  0
 14 17  1  0
 17 18  1  1
 18 19  1  0
 20 19  1  1
 20 21  1  0
 21 22  1  6
 22 23  1  0
 23 24  1  0
 24 25  1  6
 24 26  1  0
 26 27  1  0
 27 28  1  0
 28 29  1  0
 29 30  1  1
 26 31  1  1
 31 32  2  0
 32 33  1  0
 33 34  2  0
 33 35  1  0
 35 36  1  0
 17 37  1  0
  9 38  1  0
 38 39  1  6
 38  3  1  0
 37 11  1  0
 21 14  1  0
 29 24  1  0
 36 31  1  0
 29 20  1  0
M  END
$$$$
