
     RDKit          3D

 39 44  0  0  0  0  0  0  0  0999 V2000
  157.4783  141.9728  122.2708 C   0  0  0  0  0  0  0  0  0  0  0  0
  157.3686  142.5058  123.5480 O   0  0  0  0  0  0  0  0  0  0  0  0
  157.7532  143.8240  123.5483 C   0  0  2  0  0  0  0  0  0  0  0  0
  157.2653  144.5526  122.2894 C   0  0  1  0  0  0  0  0  0  0  0  0
  155.8787  144.6037  122.3092 O   0  0  0  0  0  0  0  0  0  0  0  0
  157.9007  145.9242  122.3174 C   0  0  2  0  0  0  0  0  0  0  0  0
  158.8333  146.1156  121.1346 C   0  0  0  0  0  0  0  0  0  0  0  0
  158.5220  146.1948  123.5208 O   0  0  0  0  0  0  0  0  0  0  0  0
  159.6340  145.3644  123.6185 C   0  0  1  0  0  0  0  0  0  0  0  0
  160.3429  145.5510  124.7875 O   0  0  0  0  0  0  0  0  0  0  0  0
  161.4331  146.4042  124.6266 C   0  0  1  0  0  0  0  0  0  0  0  0
  160.8980  147.8172  124.6831 C   0  0  0  0  0  0  0  0  0  0  0  0
  162.0381  148.8075  124.7518 C   0  0  0  0  0  0  0  0  0  0  0  0
  162.7673  148.5681  126.0831 C   0  0  1  0  0  0  0  0  0  0  0  0
  161.7025  148.5088  127.1137 C   0  0  0  0  0  0  0  0  0  0  0  0
  161.8748  148.4662  128.2998 O   0  0  0  0  0  0  0  0  0  0  0  0
  163.3996  147.2135  125.9773 C   0  0  2  0  0  0  0  0  0  0  0  0
  164.5097  147.1708  124.9364 C   0  0  0  0  0  0  0  0  0  0  0  0
  165.3444  148.4169  124.9230 C   0  0  0  0  0  0  0  0  0  0  0  0
  165.2064  149.1013  126.2634 C   0  0  2  0  0  0  0  0  0  0  0  0
  163.7960  149.6136  126.3608 C   0  0  2  0  0  0  0  0  0  0  0  0
  163.5761  150.3685  127.6460 C   0  0  0  0  0  0  0  0  0  0  0  0
  164.7670  150.4605  128.5172 C   0  0  0  0  0  0  0  0  0  0  0  0
  166.0561  150.7784  127.8243 C   0  0  2  0  0  0  0  0  0  0  0  0
  167.1764  150.2426  128.7029 C   0  0  0  0  0  0  0  0  0  0  0  0
  166.2825  152.2635  127.6629 C   0  0  2  0  0  0  0  0  0  0  0  0
  166.9422  152.3989  126.2779 C   0  0  0  0  0  0  0  0  0  0  0  0
  166.1246  151.3277  125.5289 C   0  0  0  0  0  0  0  0  0  0  0  0
  166.2061  150.1902  126.4716 C   0  0  2  0  0  0  0  0  0  0  0  0
  167.4945  149.6215  126.3005 O   0  0  0  0  0  0  0  0  0  0  0  0
  167.1564  152.8564  128.6894 C   0  0  0  0  0  0  0  0  0  0  0  0
  167.0159  154.0399  129.2990 C   0  0  0  0  0  0  0  0  0  0  0  0
  168.0884  154.2442  130.2414 C   0  0  0  0  0  0  0  0  0  0  0  0
  168.3246  155.2221  131.0142 O   0  0  0  0  0  0  0  0  0  0  0  0
  168.9023  153.1328  130.1892 O   0  0  0  0  0  0  0  0  0  0  0  0
  168.3708  152.2349  129.2657 C   0  0  0  0  0  0  0  0  0  0  0  0
  162.4392  146.1029  125.6754 C   0  0  0  0  0  0  0  0  0  0  0  0
  159.2564  143.9027  123.5251 C   0  0  1  0  0  0  0  0  0  0  0  0
  159.7597  143.1708  124.5984 O   0  0  0  0  0  0  0  0  0  0  0  0
  1  2  1  0
  3  2  1  6
  3  4  1  0
  4  5  1  1
  4  6  1  0
  6  7  1  6
  6  8  1  0
  8  9  1  0
  9 10  1  1
 11 10  1  1
 11 12  1  0
 12 13  1  0
 13 14  1  0
 14 15  1  1
 15 16  2  0
 14 17  1  0
 17 18  1  6
 18 19  1  0
 20 19  1  6
 20 21  1  0
 21 22  1  1
 22 23  1  0
 23 24  1  0
 24 25  1  1
 24 26  1  0
 26 27  1  0
 27 28  1  0
 28 29  1  0
 29 30  1  1
 26 31  1  1
 31 32  2  0
 32 33  1  0
 33 34  2  0
 33 35  1  0
 35 36  1  0
 17 37  1  0
  9 38  1  0
 38 39  1  1
 38  3  1  0
 37 11  1  0
 21 14  1  0
 29 24  1  0
 36 31  1  0
 29 20  1  0
M  END
$$$$
