
     RDKit          3D

 39 44  0  0  0  0  0  0  0  0999 V2000
  128.7774  136.3520  131.2326 C   0  0  0  0  0  0  0  0  0  0  0  0
  129.7669  137.3245  131.1832 O   0  0  0  0  0  0  0  0  0  0  0  0
  129.7189  138.1099  132.3087 C   0  0  2  0  0  0  0  0  0  0  0  0
  129.3799  137.2843  133.5565 C   0  0  1  0  0  0  0  0  0  0  0  0
  130.4191  136.3988  133.8050 O   0  0  0  0  0  0  0  0  0  0  0  0
  129.1756  138.2748  134.6805 C   0  0  2  0  0  0  0  0  0  0  0  0
  127.7494  138.2224  135.1988 C   0  0  0  0  0  0  0  0  0  0  0  0
  129.5574  139.5556  134.3326 O   0  0  0  0  0  0  0  0  0  0  0  0
  128.6587  140.0200  133.3775 C   0  0  1  0  0  0  0  0  0  0  0  0
  128.9389  141.3034  132.9551 O   0  0  0  0  0  0  0  0  0  0  0  0
  128.4946  142.2748  133.8503 C   0  0  1  0  0  0  0  0  0  0  0  0
  129.7256  142.9217  134.4440 C   0  0  0  0  0  0  0  0  0  0  0  0
  129.3404  144.1425  135.2481 C   0  0  0  0  0  0  0  0  0  0  0  0
  128.7467  145.1640  134.2656 C   0  0  1  0  0  0  0  0  0  0  0  0
  129.7020  145.2269  133.1330 C   0  0  0  0  0  0  0  0  0  0  0  0
  129.4375  145.5485  132.0083 O   0  0  0  0  0  0  0  0  0  0  0  0
  127.4626  144.5715  133.7695 C   0  0  2  0  0  0  0  0  0  0  0  0
  126.4123  144.4614  134.8660 C   0  0  0  0  0  0  0  0  0  0  0  0
  126.4125  145.6401  135.7937 C   0  0  0  0  0  0  0  0  0  0  0  0
  127.0477  146.8116  135.0809 C   0  0  2  0  0  0  0  0  0  0  0  0
  128.5063  146.4911  134.9057 C   0  0  2  0  0  0  0  0  0  0  0  0
  129.2423  147.6323  134.2532 C   0  0  0  0  0  0  0  0  0  0  0  0
  128.4023  148.8084  133.9417 C   0  0  0  0  0  0  0  0  0  0  0  0
  127.4410  149.2224  135.0128 C   0  0  2  0  0  0  0  0  0  0  0  0
  126.3121  149.9781  134.3283 C   0  0  0  0  0  0  0  0  0  0  0  0
  128.0601  150.1584  136.0244 C   0  0  2  0  0  0  0  0  0  0  0  0
  127.4439  149.7269  137.3683 C   0  0  0  0  0  0  0  0  0  0  0  0
  127.4458  148.2018  137.1420 C   0  0  0  0  0  0  0  0  0  0  0  0
  126.8479  148.1090  135.7918 C   0  0  2  0  0  0  0  0  0  0  0  0
  125.4509  148.2894  135.9607 O   0  0  0  0  0  0  0  0  0  0  0  0
  127.7759  151.5830  135.7824 C   0  0  0  0  0  0  0  0  0  0  0  0
  128.4027  152.6429  136.3076 C   0  0  0  0  0  0  0  0  0  0  0  0
  127.8159  153.8635  135.8118 C   0  0  0  0  0  0  0  0  0  0  0  0
  128.1107  155.0727  136.0573 O   0  0  0  0  0  0  0  0  0  0  0  0
  126.7951  153.5133  134.9541 O   0  0  0  0  0  0  0  0  0  0  0  0
  126.7331  152.1232  134.8802 C   0  0  0  0  0  0  0  0  0  0  0  0
  127.6080  143.2231  133.1310 C   0  0  0  0  0  0  0  0  0  0  0  0
  128.6150  139.1228  132.1605 C   0  0  1  0  0  0  0  0  0  0  0  0
  128.8203  139.8400  130.9839 O   0  0  0  0  0  0  0  0  0  0  0  0
  1  2  1  0
  3  2  1  6
  3  4  1  0
  4  5  1  1
  4  6  1  0
  6  7  1  6
  6  8  1  0
  8  9  1  0
  9 10  1  6
 11 10  1  6
 11 12  1  0
 12 13  1  0
 13 14  1  0
 14 15  1  6
 15 16  2  0
 14 17  1  0
 17 18  1  1
 18 19  1  0
 20 19  1  1
 20 21  1  0
 21 22  1  6
 22 23  1  0
 23 24  1  0
 24 25  1  6
 24 26  1  0
 26 27  1  0
 27 28  1  0
 28 29  1  0
 29 30  1  1
 26 31  1  6
 31 32  2  0
 32 33  1  0
 33 34  2  0
 33 35  1  0
 35 36  1  0
 17 37  1  0
  9 38  1  0
 38 39  1  6
 38  3  1  0
 37 11  1  0
 21 14  1  0
 29 24  1  0
 36 31  1  0
 29 20  1  0
M  END
$$$$
