
     RDKit          3D

 39 44  0  0  0  0  0  0  0  0999 V2000
  130.6403  137.3794  129.3331 C   0  0  0  0  0  0  0  0  0  0  0  0
  131.5465  138.1642  130.0331 O   0  0  0  0  0  0  0  0  0  0  0  0
  130.9905  138.5966  131.2120 C   0  0  2  0  0  0  0  0  0  0  0  0
  129.9982  137.5711  131.7752 C   0  0  1  0  0  0  0  0  0  0  0  0
  130.6917  136.4222  132.1285 O   0  0  0  0  0  0  0  0  0  0  0  0
  129.3251  138.2332  132.9562 C   0  0  2  0  0  0  0  0  0  0  0  0
  127.8354  138.3963  132.7118 C   0  0  0  0  0  0  0  0  0  0  0  0
  129.9291  139.4238  133.3100 O   0  0  0  0  0  0  0  0  0  0  0  0
  129.6845  140.3406  132.2926 C   0  0  1  0  0  0  0  0  0  0  0  0
  130.2398  141.5792  132.5406 O   0  0  0  0  0  0  0  0  0  0  0  0
  129.3602  142.4445  133.1886 C   0  0  1  0  0  0  0  0  0  0  0  0
  130.0747  142.9585  134.4181 C   0  0  0  0  0  0  0  0  0  0  0  0
  129.2850  144.0803  135.0531 C   0  0  0  0  0  0  0  0  0  0  0  0
  129.2616  145.2434  134.0491 C   0  0  1  0  0  0  0  0  0  0  0  0
  130.6663  145.4124  133.6047 C   0  0  0  0  0  0  0  0  0  0  0  0
  131.0245  145.9730  132.6068 O   0  0  0  0  0  0  0  0  0  0  0  0
  128.4489  144.7729  132.8811 C   0  0  2  0  0  0  0  0  0  0  0  0
  126.9838  144.5656  133.2392 C   0  0  0  0  0  0  0  0  0  0  0  0
  126.4585  145.6139  134.1745 C   0  0  0  0  0  0  0  0  0  0  0  0
  127.3341  146.8405  134.0612 C   0  0  2  0  0  0  0  0  0  0  0  0
  128.6775  146.4856  134.6358 C   0  0  2  0  0  0  0  0  0  0  0  0
  129.6083  147.6703  134.6221 C   0  0  0  0  0  0  0  0  0  0  0  0
  129.0183  148.9102  134.0740 C   0  0  0  0  0  0  0  0  0  0  0  0
  127.6249  149.2218  134.5260 C   0  0  2  0  0  0  0  0  0  0  0  0
  126.9985  150.1051  133.4575 C   0  0  0  0  0  0  0  0  0  0  0  0
  127.5901  149.9935  135.8245 C   0  0  2  0  0  0  0  0  0  0  0  0
  126.3752  149.4180  136.5760 C   0  0  0  0  0  0  0  0  0  0  0  0
  126.5459  147.9360  136.1866 C   0  0  0  0  0  0  0  0  0  0  0  0
  126.7484  148.0425  134.7248 C   0  0  2  0  0  0  0  0  0  0  0  0
  125.4654  148.2569  134.1587 O   0  0  0  0  0  0  0  0  0  0  0  0
  127.4283  151.4478  135.6587 C   0  0  0  0  0  0  0  0  0  0  0  0
  127.9887  152.4215  136.3868 C   0  0  0  0  0  0  0  0  0  0  0  0
  127.5712  153.7120  135.8964 C   0  0  0  0  0  0  0  0  0  0  0  0
  127.8691  154.8771  136.3001 O   0  0  0  0  0  0  0  0  0  0  0  0
  126.7251  153.4954  134.8298 O   0  0  0  0  0  0  0  0  0  0  0  0
  126.6123  152.1220  134.6229 C   0  0  0  0  0  0  0  0  0  0  0  0
  128.9520  143.5132  132.2431 C   0  0  0  0  0  0  0  0  0  0  0  0
  130.2002  139.8523  130.9571 C   0  0  1  0  0  0  0  0  0  0  0  0
  131.0332  140.7907  130.3520 O   0  0  0  0  0  0  0  0  0  0  0  0
  1  2  1  0
  3  2  1  6
  3  4  1  0
  4  5  1  1
  4  6  1  0
  6  7  1  6
  6  8  1  0
  8  9  1  0
  9 10  1  1
 11 10  1  6
 11 12  1  0
 12 13  1  0
 13 14  1  0
 14 15  1  6
 15 16  2  0
 14 17  1  0
 17 18  1  1
 18 19  1  0
 20 19  1  1
 20 21  1  0
 21 22  1  6
 22 23  1  0
 23 24  1  0
 24 25  1  6
 24 26  1  0
 26 27  1  0
 27 28  1  0
 28 29  1  0
 29 30  1  6
 26 31  1  6
 31 32  2  0
 32 33  1  0
 33 34  2  0
 33 35  1  0
 35 36  1  0
 17 37  1  0
  9 38  1  0
 38 39  1  1
 38  3  1  0
 37 11  1  0
 21 14  1  0
 29 24  1  0
 36 31  1  0
 29 20  1  0
M  END
$$$$
