
     RDKit          3D

 39 44  0  0  0  0  0  0  0  0999 V2000
  126.8697  153.1606  134.5737 C   0  0  0  0  0  0  0  0  0  0  0  0
  127.6324  152.1983  133.9259 O   0  0  0  0  0  0  0  0  0  0  0  0
  127.0938  150.9509  134.1250 C   0  0  2  0  0  0  0  0  0  0  0  0
  125.5677  150.9656  133.9681 C   0  0  1  0  0  0  0  0  0  0  0  0
  125.2548  151.2637  132.6494 O   0  0  0  0  0  0  0  0  0  0  0  0
  125.0827  149.5965  134.3882 C   0  0  2  0  0  0  0  0  0  0  0  0
  124.1888  149.6883  135.6120 C   0  0  0  0  0  0  0  0  0  0  0  0
  126.1182  148.6998  134.5645 O   0  0  0  0  0  0  0  0  0  0  0  0
  126.8395  149.1017  135.6842 C   0  0  1  0  0  0  0  0  0  0  0  0
  127.9046  148.2703  135.9641 O   0  0  0  0  0  0  0  0  0  0  0  0
  127.6371  146.9342  135.6714 C   0  0  1  0  0  0  0  0  0  0  0  0
  127.2238  146.8764  134.2181 C   0  0  0  0  0  0  0  0  0  0  0  0
  127.1414  145.4404  133.7530 C   0  0  0  0  0  0  0  0  0  0  0  0
  128.5623  144.8591  133.8216 C   0  0  1  0  0  0  0  0  0  0  0  0
  129.4331  145.8606  133.1597 C   0  0  0  0  0  0  0  0  0  0  0  0
  130.6152  145.9805  133.3232 O   0  0  0  0  0  0  0  0  0  0  0  0
  128.9235  144.8048  135.2751 C   0  0  2  0  0  0  0  0  0  0  0  0
  128.0772  143.8014  136.0464 C   0  0  0  0  0  0  0  0  0  0  0  0
  127.8076  142.5472  135.2692 C   0  0  0  0  0  0  0  0  0  0  0  0
  128.8704  142.4046  134.2043 C   0  0  2  0  0  0  0  0  0  0  0  0
  128.6497  143.5037  133.2022 C   0  0  2  0  0  0  0  0  0  0  0  0
  129.6302  143.4093  132.0622 C   0  0  0  0  0  0  0  0  0  0  0  0
  130.5736  142.2746  132.1543 C   0  0  0  0  0  0  0  0  0  0  0  0
  129.9766  140.9651  132.5686 C   0  0  2  0  0  0  0  0  0  0  0  0
  131.0979  140.1401  133.1820 C   0  0  0  0  0  0  0  0  0  0  0  0
  129.4258  140.1783  131.4022 C   0  0  2  0  0  0  0  0  0  0  0  0
  128.1481  139.5211  131.9568 C   0  0  0  0  0  0  0  0  0  0  0  0
  127.6449  140.6932  132.8228 C   0  0  0  0  0  0  0  0  0  0  0  0
  128.8760  141.0592  133.5576 C   0  0  2  0  0  0  0  0  0  0  0  0
  129.0283  140.0945  134.5866 O   0  0  0  0  0  0  0  0  0  0  0  0
  130.3362  139.1402  130.8902 C   0  0  0  0  0  0  0  0  0  0  0  0
  131.3395  139.2905  130.0166 C   0  0  0  0  0  0  0  0  0  0  0  0
  131.9860  138.0234  129.7791 C   0  0  0  0  0  0  0  0  0  0  0  0
  132.9671  137.7322  129.0295 O   0  0  0  0  0  0  0  0  0  0  0  0
  131.3381  137.0783  130.5455 O   0  0  0  0  0  0  0  0  0  0  0  0
  130.3249  137.7078  131.2659 C   0  0  0  0  0  0  0  0  0  0  0  0
  128.8397  146.1226  135.9844 C   0  0  0  0  0  0  0  0  0  0  0  0
  127.3681  150.5114  135.5385 C   0  0  1  0  0  0  0  0  0  0  0  0
  128.7408  150.5733  135.7683 O   0  0  0  0  0  0  0  0  0  0  0  0
  1  2  1  0
  3  2  1  1
  3  4  1  0
  4  5  1  6
  4  6  1  0
  6  7  1  1
  6  8  1  0
  8  9  1  0
  9 10  1  6
 11 10  1  6
 11 12  1  0
 12 13  1  0
 13 14  1  0
 14 15  1  6
 15 16  2  0
 14 17  1  0
 17 18  1  1
 18 19  1  0
 20 19  1  1
 20 21  1  0
 21 22  1  6
 22 23  1  0
 23 24  1  0
 24 25  1  1
 24 26  1  0
 26 27  1  0
 27 28  1  0
 28 29  1  0
 29 30  1  1
 26 31  1  1
 31 32  2  0
 32 33  1  0
 33 34  2  0
 33 35  1  0
 35 36  1  0
 17 37  1  0
  9 38  1  0
 38 39  1  6
 38  3  1  0
 37 11  1  0
 21 14  1  0
 29 24  1  0
 36 31  1  0
 29 20  1  0
M  END
$$$$
