
     RDKit          3D

 39 44  0  0  0  0  0  0  0  0999 V2000
  158.8712  142.2710  120.3468 C   0  0  0  0  0  0  0  0  0  0  0  0
  159.3267  142.5819  121.6209 O   0  0  0  0  0  0  0  0  0  0  0  0
  159.4608  143.9415  121.7597 C   0  0  2  0  0  0  0  0  0  0  0  0
  159.2323  144.6680  120.4279 C   0  0  1  0  0  0  0  0  0  0  0  0
  157.9102  144.4952  120.0433 O   0  0  0  0  0  0  0  0  0  0  0  0
  159.5858  146.1185  120.6673 C   0  0  2  0  0  0  0  0  0  0  0  0
  160.7682  146.5382  119.8123 C   0  0  0  0  0  0  0  0  0  0  0  0
  159.7829  146.4009  122.0048 O   0  0  0  0  0  0  0  0  0  0  0  0
  160.9476  145.7544  122.4063 C   0  0  1  0  0  0  0  0  0  0  0  0
  161.2515  145.9706  123.7347 O   0  0  0  0  0  0  0  0  0  0  0  0
  162.2670  146.9091  123.9097 C   0  0  1  0  0  0  0  0  0  0  0  0
  161.6276  148.1429  124.5058 C   0  0  0  0  0  0  0  0  0  0  0  0
  162.6904  149.1240  124.9453 C   0  0  0  0  0  0  0  0  0  0  0  0
  163.4826  148.4565  126.0804 C   0  0  1  0  0  0  0  0  0  0  0  0
  162.4626  147.9185  127.0130 C   0  0  0  0  0  0  0  0  0  0  0  0
  162.6499  147.0819  127.8518 O   0  0  0  0  0  0  0  0  0  0  0  0
  164.2125  147.3035  125.4608 C   0  0  2  0  0  0  0  0  0  0  0  0
  165.2849  147.7554  124.4793 C   0  0  0  0  0  0  0  0  0  0  0  0
  166.0209  148.9776  124.9423 C   0  0  0  0  0  0  0  0  0  0  0  0
  165.8786  149.0838  126.4431 C   0  0  2  0  0  0  0  0  0  0  0  0
  164.4375  149.3992  126.7344 C   0  0  2  0  0  0  0  0  0  0  0  0
  164.2062  149.5844  128.2116 C   0  0  0  0  0  0  0  0  0  0  0  0
  165.4168  149.4365  129.0474 C   0  0  0  0  0  0  0  0  0  0  0  0
  166.6524  150.1024  128.5250 C   0  0  2  0  0  0  0  0  0  0  0  0
  167.8409  149.3680  129.1269 C   0  0  0  0  0  0  0  0  0  0  0  0
  166.7587  151.5499  128.9451 C   0  0  2  0  0  0  0  0  0  0  0  0
  167.3566  152.2592  127.7157 C   0  0  0  0  0  0  0  0  0  0  0  0
  166.5972  151.4906  126.6158 C   0  0  0  0  0  0  0  0  0  0  0  0
  166.7989  150.0905  127.0497 C   0  0  2  0  0  0  0  0  0  0  0  0
  168.1201  149.7411  126.6691 O   0  0  0  0  0  0  0  0  0  0  0  0
  167.6206  151.7769  130.1174 C   0  0  0  0  0  0  0  0  0  0  0  0
  167.6551  152.8547  130.9109 C   0  0  0  0  0  0  0  0  0  0  0  0
  168.6420  152.6774  131.9475 C   0  0  0  0  0  0  0  0  0  0  0  0
  168.9856  153.4512  132.8922 O   0  0  0  0  0  0  0  0  0  0  0  0
  169.2196  151.4396  131.7616 O   0  0  0  0  0  0  0  0  0  0  0  0
  168.6200  150.8293  130.6617 C   0  0  0  0  0  0  0  0  0  0  0  0
  163.3297  146.3159  124.7592 C   0  0  0  0  0  0  0  0  0  0  0  0
  160.8713  144.2611  122.1777 C   0  0  1  0  0  0  0  0  0  0  0  0
  161.1678  143.5467  123.3363 O   0  0  0  0  0  0  0  0  0  0  0  0
  1  2  1  0
  3  2  1  6
  3  4  1  0
  4  5  1  1
  4  6  1  0
  6  7  1  6
  6  8  1  0
  8  9  1  0
  9 10  1  1
 11 10  1  1
 11 12  1  0
 12 13  1  0
 13 14  1  0
 14 15  1  1
 15 16  2  0
 14 17  1  0
 17 18  1  6
 18 19  1  0
 20 19  1  6
 20 21  1  0
 21 22  1  1
 22 23  1  0
 23 24  1  0
 24 25  1  1
 24 26  1  0
 26 27  1  0
 27 28  1  0
 28 29  1  0
 29 30  1  1
 26 31  1  1
 31 32  2  0
 32 33  1  0
 33 34  2  0
 33 35  1  0
 35 36  1  0
 17 37  1  0
  9 38  1  0
 38 39  1  1
 38  3  1  0
 37 11  1  0
 21 14  1  0
 29 24  1  0
 36 31  1  0
 29 20  1  0
M  END
$$$$
