
     RDKit          3D

 39 44  0  0  0  0  0  0  0  0999 V2000
  207.4024  127.4324  136.4054 C   0  0  0  0  0  0  0  0  0  0  0  0
  206.1657  127.9847  136.7103 O   0  0  0  0  0  0  0  0  0  0  0  0
  205.5723  128.4791  135.5748 C   0  0  2  0  0  0  0  0  0  0  0  0
  205.9686  127.6680  134.3344 C   0  0  1  0  0  0  0  0  0  0  0  0
  205.4548  126.3844  134.4543 O   0  0  0  0  0  0  0  0  0  0  0  0
  205.4099  128.4115  133.1424 C   0  0  2  0  0  0  0  0  0  0  0  0
  206.5248  128.8986  132.2340 C   0  0  0  0  0  0  0  0  0  0  0  0
  204.5529  129.4307  133.5090 O   0  0  0  0  0  0  0  0  0  0  0  0
  205.3114  130.4180  134.1299 C   0  0  1  0  0  0  0  0  0  0  0  0
  204.5564  131.4986  134.5378 O   0  0  0  0  0  0  0  0  0  0  0  0
  204.6651  132.5884  133.6758 C   0  0  1  0  0  0  0  0  0  0  0  0
  203.5574  132.4541  132.6553 C   0  0  0  0  0  0  0  0  0  0  0  0
  203.4549  133.7126  131.8241 C   0  0  0  0  0  0  0  0  0  0  0  0
  203.0353  134.8484  132.7703 C   0  0  1  0  0  0  0  0  0  0  0  0
  201.8916  134.3143  133.5487 C   0  0  0  0  0  0  0  0  0  0  0  0
  200.8681  133.8886  133.0907 O   0  0  0  0  0  0  0  0  0  0  0  0
  204.1865  135.0615  133.7061 C   0  0  2  0  0  0  0  0  0  0  0  0
  205.4174  135.6086  132.9968 C   0  0  0  0  0  0  0  0  0  0  0  0
  205.0808  136.6205  131.9421 C   0  0  0  0  0  0  0  0  0  0  0  0
  203.7191  137.1994  132.2497 C   0  0  2  0  0  0  0  0  0  0  0  0
  202.7094  136.1061  132.0351 C   0  0  2  0  0  0  0  0  0  0  0  0
  201.3061  136.6057  132.2609 C   0  0  0  0  0  0  0  0  0  0  0  0
  201.2130  138.0362  132.6229 C   0  0  0  0  0  0  0  0  0  0  0  0
  202.0819  138.9646  131.8317 C   0  0  2  0  0  0  0  0  0  0  0  0
  202.3181  140.1951  132.6945 C   0  0  0  0  0  0  0  0  0  0  0  0
  201.4267  139.4314  130.5527 C   0  0  2  0  0  0  0  0  0  0  0  0
  202.5784  139.4792  129.5314 C   0  0  0  0  0  0  0  0  0  0  0  0
  203.3321  138.2098  129.9763 C   0  0  0  0  0  0  0  0  0  0  0  0
  203.4012  138.4128  131.4403 C   0  0  2  0  0  0  0  0  0  0  0  0
  204.4374  139.3555  131.6641 O   0  0  0  0  0  0  0  0  0  0  0  0
  200.7920  140.7568  130.6480 C   0  0  0  0  0  0  0  0  0  0  0  0
  199.5555  141.0429  131.0740 C   0  0  0  0  0  0  0  0  0  0  0  0
  199.3243  142.4651  131.0100 C   0  0  0  0  0  0  0  0  0  0  0  0
  198.2969  143.1425  131.3179 O   0  0  0  0  0  0  0  0  0  0  0  0
  200.4743  143.0498  130.5244 O   0  0  0  0  0  0  0  0  0  0  0  0
  201.4205  142.0518  130.3000 C   0  0  0  0  0  0  0  0  0  0  0  0
  204.5979  133.8398  134.4710 C   0  0  0  0  0  0  0  0  0  0  0  0
  206.0570  129.8837  135.3327 C   0  0  1  0  0  0  0  0  0  0  0  0
  205.8096  130.6455  136.4725 O   0  0  0  0  0  0  0  0  0  0  0  0
  1  2  1  0
  3  2  1  1
  3  4  1  0
  4  5  1  1
  4  6  1  0
  6  7  1  1
  6  8  1  0
  8  9  1  0
  9 10  1  1
 11 10  1  1
 11 12  1  0
 12 13  1  0
 13 14  1  0
 14 15  1  1
 15 16  2  0
 14 17  1  0
 17 18  1  6
 18 19  1  0
 20 19  1  6
 20 21  1  0
 21 22  1  1
 22 23  1  0
 23 24  1  0
 24 25  1  1
 24 26  1  0
 26 27  1  0
 27 28  1  0
 28 29  1  0
 29 30  1  6
 26 31  1  1
 31 32  2  0
 32 33  1  0
 33 34  2  0
 33 35  1  0
 35 36  1  0
 17 37  1  0
  9 38  1  0
 38 39  1  1
 38  3  1  0
 37 11  1  0
 21 14  1  0
 29 24  1  0
 36 31  1  0
 29 20  1  0
M  END
$$$$
