
     RDKit          3D

 39 44  0  0  0  0  0  0  0  0999 V2000
  174.0101  143.2527  120.3031 C   0  0  0  0  0  0  0  0  0  0  0  0
  172.7477  143.6768  120.6952 O   0  0  0  0  0  0  0  0  0  0  0  0
  172.6560  145.0441  120.6060 C   0  0  2  0  0  0  0  0  0  0  0  0
  173.9604  145.6625  120.0866 C   0  0  1  0  0  0  0  0  0  0  0  0
  174.1628  145.2500  118.7772 O   0  0  0  0  0  0  0  0  0  0  0  0
  173.8000  147.1610  120.2085 C   0  0  2  0  0  0  0  0  0  0  0  0
  174.8127  147.7390  121.1809 C   0  0  0  0  0  0  0  0  0  0  0  0
  172.5065  147.5307  120.5213 O   0  0  0  0  0  0  0  0  0  0  0  0
  172.2497  147.1105  121.8225 C   0  0  1  0  0  0  0  0  0  0  0  0
  170.9780  147.4328  122.2500 O   0  0  0  0  0  0  0  0  0  0  0  0
  170.9701  148.0570  123.4961 C   0  0  1  0  0  0  0  0  0  0  0  0
  170.0985  149.2858  123.3670 C   0  0  0  0  0  0  0  0  0  0  0  0
  169.8442  149.8939  124.7275 C   0  0  0  0  0  0  0  0  0  0  0  0
  169.0319  148.8710  125.5369 C   0  0  1  0  0  0  0  0  0  0  0  0
  167.9318  148.4394  124.6407 C   0  0  0  0  0  0  0  0  0  0  0  0
  167.0151  149.1212  124.2756 O   0  0  0  0  0  0  0  0  0  0  0  0
  169.9406  147.7019  125.7678 C   0  0  2  0  0  0  0  0  0  0  0  0
  171.1105  148.0471  126.6787 C   0  0  0  0  0  0  0  0  0  0  0  0
  170.7231  148.9595  127.8044 C   0  0  0  0  0  0  0  0  0  0  0  0
  169.2341  148.8360  128.0316 C   0  0  2  0  0  0  0  0  0  0  0  0
  168.5480  149.4311  126.8333 C   0  0  2  0  0  0  0  0  0  0  0  0
  167.0501  149.4084  126.9936 C   0  0  0  0  0  0  0  0  0  0  0  0
  166.5765  148.8338  128.2709 C   0  0  0  0  0  0  0  0  0  0  0  0
  167.3245  149.2654  129.4945 C   0  0  2  0  0  0  0  0  0  0  0  0
  167.1336  148.1760  130.5389 C   0  0  0  0  0  0  0  0  0  0  0  0
  166.7912  150.5508  130.0829 C   0  0  2  0  0  0  0  0  0  0  0  0
  168.0485  151.2981  130.5654 C   0  0  0  0  0  0  0  0  0  0  0  0
  168.9919  150.9347  129.4013 C   0  0  0  0  0  0  0  0  0  0  0  0
  168.7799  149.4736  129.3026 C   0  0  2  0  0  0  0  0  0  0  0  0
  169.5244  148.8900  130.3598 O   0  0  0  0  0  0  0  0  0  0  0  0
  165.8637  150.3597  131.2107 C   0  0  0  0  0  0  0  0  0  0  0  0
  164.5649  150.6798  131.2649 C   0  0  0  0  0  0  0  0  0  0  0  0
  164.0193  150.3272  132.5526 C   0  0  0  0  0  0  0  0  0  0  0  0
  162.8428  150.4605  133.0080 O   0  0  0  0  0  0  0  0  0  0  0  0
  165.0391  149.7731  133.2964 O   0  0  0  0  0  0  0  0  0  0  0  0
  166.1949  149.7487  132.5184 C   0  0  0  0  0  0  0  0  0  0  0  0
  170.4937  147.0899  124.5162 C   0  0  0  0  0  0  0  0  0  0  0  0
  172.4353  145.6177  121.9803 C   0  0  1  0  0  0  0  0  0  0  0  0
  171.3117  145.0152  122.5418 O   0  0  0  0  0  0  0  0  0  0  0  0
  1  2  1  0
  3  2  1  1
  3  4  1  0
  4  5  1  6
  4  6  1  0
  6  7  1  1
  6  8  1  0
  8  9  1  0
  9 10  1  6
 11 10  1  6
 11 12  1  0
 12 13  1  0
 13 14  1  0
 14 15  1  6
 15 16  2  0
 14 17  1  0
 17 18  1  1
 18 19  1  0
 20 19  1  6
 20 21  1  0
 21 22  1  1
 22 23  1  0
 23 24  1  0
 24 25  1  1
 24 26  1  0
 26 27  1  0
 27 28  1  0
 28 29  1  0
 29 30  1  1
 26 31  1  1
 31 32  2  0
 32 33  1  0
 33 34  2  0
 33 35  1  0
 35 36  1  0
 17 37  1  0
  9 38  1  0
 38 39  1  6
 38  3  1  0
 37 11  1  0
 21 14  1  0
 29 24  1  0
 36 31  1  0
 29 20  1  0
M  END
$$$$
