
     RDKit          3D

 39 44  0  0  0  0  0  0  0  0999 V2000
  179.1692  148.2701  117.4570 C   0  0  0  0  0  0  0  0  0  0  0  0
  178.4954  149.0721  118.3681 O   0  0  0  0  0  0  0  0  0  0  0  0
  177.8959  148.2982  119.3311 C   0  0  2  0  0  0  0  0  0  0  0  0
  178.6398  146.9714  119.5300 C   0  0  1  0  0  0  0  0  0  0  0  0
  179.9011  147.2365  120.0445 O   0  0  0  0  0  0  0  0  0  0  0  0
  177.7899  146.1421  120.4660 C   0  0  2  0  0  0  0  0  0  0  0  0
  177.2990  144.8797  119.7800 C   0  0  0  0  0  0  0  0  0  0  0  0
  176.7563  146.8680  121.0246 O   0  0  0  0  0  0  0  0  0  0  0  0
  175.8527  147.1668  120.0098 C   0  0  1  0  0  0  0  0  0  0  0  0
  174.7657  147.8913  120.4543 O   0  0  0  0  0  0  0  0  0  0  0  0
  173.8665  147.1191  121.1875 C   0  0  1  0  0  0  0  0  0  0  0  0
  174.4181  147.0162  122.5916 C   0  0  0  0  0  0  0  0  0  0  0  0
  173.3935  146.3949  123.5133 C   0  0  0  0  0  0  0  0  0  0  0  0
  172.2029  147.3637  123.5867 C   0  0  1  0  0  0  0  0  0  0  0  0
  172.7937  148.7001  123.8402 C   0  0  0  0  0  0  0  0  0  0  0  0
  172.2189  149.6458  124.3024 O   0  0  0  0  0  0  0  0  0  0  0  0
  171.5834  147.3711  122.2220 C   0  0  2  0  0  0  0  0  0  0  0  0
  170.9490  146.0340  121.8653 C   0  0  0  0  0  0  0  0  0  0  0  0
  170.2519  145.3911  123.0274 C   0  0  0  0  0  0  0  0  0  0  0  0
  169.9105  146.4640  124.0355 C   0  0  2  0  0  0  0  0  0  0  0  0
  171.2053  146.9568  124.6200 C   0  0  2  0  0  0  0  0  0  0  0  0
  170.9643  147.9940  125.6860 C   0  0  0  0  0  0  0  0  0  0  0  0
  169.5394  148.2944  125.9414 C   0  0  0  0  0  0  0  0  0  0  0  0
  168.6280  147.1082  126.0132 C   0  0  2  0  0  0  0  0  0  0  0  0
  167.2307  147.6002  125.6673 C   0  0  0  0  0  0  0  0  0  0  0  0
  168.5622  146.5041  127.3966 C   0  0  2  0  0  0  0  0  0  0  0  0
  168.4839  144.9867  127.1452 C   0  0  0  0  0  0  0  0  0  0  0  0
  169.4633  144.9004  125.9576 C   0  0  0  0  0  0  0  0  0  0  0  0
  168.9683  145.9955  125.0944 C   0  0  2  0  0  0  0  0  0  0  0  0
  167.8109  145.4976  124.4423 O   0  0  0  0  0  0  0  0  0  0  0  0
  167.3993  146.9367  128.1899 C   0  0  0  0  0  0  0  0  0  0  0  0
  167.2775  146.9492  129.5231 C   0  0  0  0  0  0  0  0  0  0  0  0
  165.9768  147.4462  129.8988 C   0  0  0  0  0  0  0  0  0  0  0  0
  165.4651  147.6155  131.0472 O   0  0  0  0  0  0  0  0  0  0  0  0
  165.2956  147.7420  128.7375 O   0  0  0  0  0  0  0  0  0  0  0  0
  166.1254  147.4671  127.6524 C   0  0  0  0  0  0  0  0  0  0  0  0
  172.5234  147.7468  121.1166 C   0  0  0  0  0  0  0  0  0  0  0  0
  176.5042  147.9384  118.8837 C   0  0  1  0  0  0  0  0  0  0  0  0
  175.8100  149.1108  118.5933 O   0  0  0  0  0  0  0  0  0  0  0  0
  1  2  1  0
  3  2  1  6
  3  4  1  0
  4  5  1  1
  4  6  1  0
  6  7  1  6
  6  8  1  0
  8  9  1  0
  9 10  1  1
 11 10  1  6
 11 12  1  0
 12 13  1  0
 13 14  1  0
 14 15  1  1
 15 16  2  0
 14 17  1  0
 17 18  1  6
 18 19  1  0
 20 19  1  6
 20 21  1  0
 21 22  1  1
 22 23  1  0
 23 24  1  0
 24 25  1  6
 24 26  1  0
 26 27  1  0
 27 28  1  0
 28 29  1  0
 29 30  1  6
 26 31  1  6
 31 32  2  0
 32 33  1  0
 33 34  2  0
 33 35  1  0
 35 36  1  0
 17 37  1  0
  9 38  1  0
 38 39  1  1
 38  3  1  0
 37 11  1  0
 21 14  1  0
 29 24  1  0
 36 31  1  0
 29 20  1  0
M  END
$$$$
