
     RDKit          3D

 39 44  0  0  0  0  0  0  0  0999 V2000
  207.4953  128.4897  133.5565 C   0  0  0  0  0  0  0  0  0  0  0  0
  207.6870  129.3671  132.4980 O   0  0  0  0  0  0  0  0  0  0  0  0
  207.2892  130.6332  132.8512 C   0  0  2  0  0  0  0  0  0  0  0  0
  208.2301  131.2474  133.8957 C   0  0  1  0  0  0  0  0  0  0  0  0
  209.4796  131.4324  133.3209 O   0  0  0  0  0  0  0  0  0  0  0  0
  207.5911  132.5457  134.3341 C   0  0  2  0  0  0  0  0  0  0  0  0
  207.2295  132.5032  135.8081 C   0  0  0  0  0  0  0  0  0  0  0  0
  206.5155  132.8992  133.5431 O   0  0  0  0  0  0  0  0  0  0  0  0
  205.4951  131.9846  133.7837 C   0  0  1  0  0  0  0  0  0  0  0  0
  204.3574  132.2428  133.0468 O   0  0  0  0  0  0  0  0  0  0  0  0
  203.8193  133.5014  133.3088 C   0  0  1  0  0  0  0  0  0  0  0  0
  204.9765  134.4736  133.3546 C   0  0  0  0  0  0  0  0  0  0  0  0
  204.4654  135.8955  133.4006 C   0  0  0  0  0  0  0  0  0  0  0  0
  203.7331  136.1575  132.0753 C   0  0  1  0  0  0  0  0  0  0  0  0
  204.6498  135.6761  131.0135 C   0  0  0  0  0  0  0  0  0  0  0  0
  204.3489  135.4533  129.8740 O   0  0  0  0  0  0  0  0  0  0  0  0
  202.5188  135.2792  132.0863 C   0  0  2  0  0  0  0  0  0  0  0  0
  201.5127  135.6931  133.1513 C   0  0  0  0  0  0  0  0  0  0  0  0
  201.3917  137.1815  133.2916 C   0  0  0  0  0  0  0  0  0  0  0  0
  201.8670  137.8246  132.0093 C   0  0  2  0  0  0  0  0  0  0  0  0
  203.3494  137.5912  131.9146 C   0  0  2  0  0  0  0  0  0  0  0  0
  203.9297  138.2509  130.6907 C   0  0  0  0  0  0  0  0  0  0  0  0
  202.9488  138.9861  129.8643 C   0  0  0  0  0  0  0  0  0  0  0  0
  201.9677  139.8306  130.6175 C   0  0  2  0  0  0  0  0  0  0  0  0
  200.7423  139.9865  129.7298 C   0  0  0  0  0  0  0  0  0  0  0  0
  202.4919  141.2177  130.9079 C   0  0  2  0  0  0  0  0  0  0  0  0
  201.9604  141.5373  132.3175 C   0  0  0  0  0  0  0  0  0  0  0  0
  202.1398  140.1434  132.9516 C   0  0  0  0  0  0  0  0  0  0  0  0
  201.5287  139.2759  131.9205 C   0  0  2  0  0  0  0  0  0  0  0  0
  200.1241  139.3946  132.0804 O   0  0  0  0  0  0  0  0  0  0  0  0
  202.0344  142.2471  129.9593 C   0  0  0  0  0  0  0  0  0  0  0  0
  202.7855  143.1069  129.2601 C   0  0  0  0  0  0  0  0  0  0  0  0
  201.9467  143.9507  128.4449 C   0  0  0  0  0  0  0  0  0  0  0  0
  202.2563  144.8844  127.6439 O   0  0  0  0  0  0  0  0  0  0  0  0
  200.6394  143.5758  128.6699 O   0  0  0  0  0  0  0  0  0  0  0  0
  200.6294  142.5196  129.5787 C   0  0  0  0  0  0  0  0  0  0  0  0
  202.8107  133.8201  132.2677 C   0  0  0  0  0  0  0  0  0  0  0  0
  205.9305  130.5650  133.4958 C   0  0  1  0  0  0  0  0  0  0  0  0
  205.0531  129.9235  132.6243 O   0  0  0  0  0  0  0  0  0  0  0  0
  1  2  1  0
  3  2  1  1
  3  4  1  0
  4  5  1  6
  4  6  1  0
  6  7  1  1
  6  8  1  0
  8  9  1  0
  9 10  1  6
 11 10  1  6
 11 12  1  0
 12 13  1  0
 13 14  1  0
 14 15  1  6
 15 16  2  0
 14 17  1  0
 17 18  1  1
 18 19  1  0
 20 19  1  1
 20 21  1  0
 21 22  1  6
 22 23  1  0
 23 24  1  0
 24 25  1  6
 24 26  1  0
 26 27  1  0
 27 28  1  0
 28 29  1  0
 29 30  1  6
 26 31  1  6
 31 32  2  0
 32 33  1  0
 33 34  2  0
 33 35  1  0
 35 36  1  0
 17 37  1  0
  9 38  1  0
 38 39  1  6
 38  3  1  0
 37 11  1  0
 21 14  1  0
 29 24  1  0
 36 31  1  0
 29 20  1  0
M  END
$$$$
