
     RDKit          3D

 39 44  0  0  0  0  0  0  0  0999 V2000
  216.7898  131.9505  133.1752 C   0  0  0  0  0  0  0  0  0  0  0  0
  216.1330  133.1669  133.3019 O   0  0  0  0  0  0  0  0  0  0  0  0
  215.0287  133.0301  134.1067 C   0  0  2  0  0  0  0  0  0  0  0  0
  215.1964  131.8725  135.0994 C   0  0  1  0  0  0  0  0  0  0  0  0
  216.2223  132.1821  135.9811 O   0  0  0  0  0  0  0  0  0  0  0  0
  213.8620  131.7074  135.7911 C   0  0  2  0  0  0  0  0  0  0  0  0
  213.2579  130.3475  135.4895 C   0  0  0  0  0  0  0  0  0  0  0  0
  212.9892  132.7401  135.5097 O   0  0  0  0  0  0  0  0  0  0  0  0
  212.6295  132.6364  134.1697 C   0  0  1  0  0  0  0  0  0  0  0  0
  211.7478  133.6206  133.7724 O   0  0  0  0  0  0  0  0  0  0  0  0
  210.4364  133.3606  134.1660 C   0  0  1  0  0  0  0  0  0  0  0  0
  210.0368  134.4633  135.1203 C   0  0  0  0  0  0  0  0  0  0  0  0
  208.5557  134.3913  135.4144 C   0  0  0  0  0  0  0  0  0  0  0  0
  207.8174  134.6719  134.0963 C   0  0  1  0  0  0  0  0  0  0  0  0
  208.4580  135.8850  133.5329 C   0  0  0  0  0  0  0  0  0  0  0  0
  208.1981  136.3903  132.4767 O   0  0  0  0  0  0  0  0  0  0  0  0
  208.1180  133.5148  133.1925 C   0  0  2  0  0  0  0  0  0  0  0  0
  207.5024  132.2144  133.6902 C   0  0  0  0  0  0  0  0  0  0  0  0
  206.1342  132.4036  134.2749 C   0  0  0  0  0  0  0  0  0  0  0  0
  205.5486  133.6825  133.7221 C   0  0  2  0  0  0  0  0  0  0  0  0
  206.3453  134.8227  134.2933 C   0  0  2  0  0  0  0  0  0  0  0  0
  205.7965  136.1521  133.8445 C   0  0  0  0  0  0  0  0  0  0  0  0
  204.6083  136.0635  132.9692 C   0  0  0  0  0  0  0  0  0  0  0  0
  203.5666  135.0715  133.3861 C   0  0  2  0  0  0  0  0  0  0  0  0
  202.7917  134.6887  132.1343 C   0  0  0  0  0  0  0  0  0  0  0  0
  202.5745  135.6445  134.3712 C   0  0  2  0  0  0  0  0  0  0  0  0
  202.2896  134.4835  135.3423 C   0  0  0  0  0  0  0  0  0  0  0  0
  203.7164  133.9065  135.4344 C   0  0  0  0  0  0  0  0  0  0  0  0
  204.0904  133.8302  134.0048 C   0  0  2  0  0  0  0  0  0  0  0  0
  203.4387  132.6833  133.4825 O   0  0  0  0  0  0  0  0  0  0  0  0
  201.3146  136.1031  133.7622 C   0  0  0  0  0  0  0  0  0  0  0  0
  200.9167  137.3648  133.5573 C   0  0  0  0  0  0  0  0  0  0  0  0
  199.6162  137.3811  132.9341 C   0  0  0  0  0  0  0  0  0  0  0  0
  198.8918  138.3589  132.5758 O   0  0  0  0  0  0  0  0  0  0  0  0
  199.2238  136.0709  132.7612 O   0  0  0  0  0  0  0  0  0  0  0  0
  200.2351  135.2373  133.2345 C   0  0  0  0  0  0  0  0  0  0  0  0
  209.5789  133.2749  132.9576 C   0  0  0  0  0  0  0  0  0  0  0  0
  213.8344  132.6870  133.2567 C   0  0  1  0  0  0  0  0  0  0  0  0
  213.6927  133.6602  132.2700 O   0  0  0  0  0  0  0  0  0  0  0  0
  1  2  1  0
  3  2  1  6
  3  4  1  0
  4  5  1  1
  4  6  1  0
  6  7  1  6
  6  8  1  0
  8  9  1  0
  9 10  1  6
 11 10  1  6
 11 12  1  0
 12 13  1  0
 13 14  1  0
 14 15  1  6
 15 16  2  0
 14 17  1  0
 17 18  1  1
 18 19  1  0
 20 19  1  1
 20 21  1  0
 21 22  1  6
 22 23  1  0
 23 24  1  0
 24 25  1  6
 24 26  1  0
 26 27  1  0
 27 28  1  0
 28 29  1  0
 29 30  1  6
 26 31  1  6
 31 32  2  0
 32 33  1  0
 33 34  2  0
 33 35  1  0
 35 36  1  0
 17 37  1  0
  9 38  1  0
 38 39  1  6
 38  3  1  0
 37 11  1  0
 21 14  1  0
 29 24  1  0
 36 31  1  0
 29 20  1  0
M  END
$$$$
