
     RDKit          3D

 39 44  0  0  0  0  0  0  0  0999 V2000
  160.4037  150.4057  120.2597 C   0  0  0  0  0  0  0  0  0  0  0  0
  160.5972  149.1756  120.8734 O   0  0  0  0  0  0  0  0  0  0  0  0
  161.8766  149.0844  121.3638 C   0  0  2  0  0  0  0  0  0  0  0  0
  162.8333  148.4768  120.3298 C   0  0  1  0  0  0  0  0  0  0  0  0
  162.9435  149.3468  119.2543 O   0  0  0  0  0  0  0  0  0  0  0  0
  164.1491  148.2595  121.0421 C   0  0  2  0  0  0  0  0  0  0  0  0
  164.4994  146.7832  121.0989 C   0  0  0  0  0  0  0  0  0  0  0  0
  164.1789  148.8510  122.2898 O   0  0  0  0  0  0  0  0  0  0  0  0
  163.2943  148.1561  123.1084 C   0  0  1  0  0  0  0  0  0  0  0  0
  163.2435  148.6580  124.3928 O   0  0  0  0  0  0  0  0  0  0  0  0
  164.4016  148.3927  125.1215 C   0  0  1  0  0  0  0  0  0  0  0  0
  165.3737  149.5124  124.8253 C   0  0  0  0  0  0  0  0  0  0  0  0
  166.5655  149.4309  125.7518 C   0  0  0  0  0  0  0  0  0  0  0  0
  166.0485  149.6736  127.1784 C   0  0  1  0  0  0  0  0  0  0  0  0
  165.1912  150.8805  127.0899 C   0  0  0  0  0  0  0  0  0  0  0  0
  165.5423  152.0080  127.2995 O   0  0  0  0  0  0  0  0  0  0  0  0
  165.1798  148.4996  127.5151 C   0  0  2  0  0  0  0  0  0  0  0  0
  165.9718  147.2042  127.6256 C   0  0  0  0  0  0  0  0  0  0  0  0
  167.3071  147.3918  128.2826 C   0  0  0  0  0  0  0  0  0  0  0  0
  167.2590  148.6514  129.1163 C   0  0  2  0  0  0  0  0  0  0  0  0
  167.1587  149.8127  128.1666 C   0  0  2  0  0  0  0  0  0  0  0  0
  167.1648  151.1256  128.9057 C   0  0  0  0  0  0  0  0  0  0  0  0
  167.2806  151.0043  130.3746 C   0  0  0  0  0  0  0  0  0  0  0  0
  168.2872  150.0108  130.8672 C   0  0  2  0  0  0  0  0  0  0  0  0
  167.8508  149.5914  132.2629 C   0  0  0  0  0  0  0  0  0  0  0  0
  169.6755  150.5951  130.9869 C   0  0  2  0  0  0  0  0  0  0  0  0
  170.6079  149.4533  130.5410 C   0  0  0  0  0  0  0  0  0  0  0  0
  169.7503  148.8941  129.3882 C   0  0  0  0  0  0  0  0  0  0  0  0
  168.4251  148.7895  130.0380 C   0  0  2  0  0  0  0  0  0  0  0  0
  168.4676  147.6241  130.8460 O   0  0  0  0  0  0  0  0  0  0  0  0
  170.0341  151.0260  132.3486 C   0  0  0  0  0  0  0  0  0  0  0  0
  170.8676  152.0125  132.7015 C   0  0  0  0  0  0  0  0  0  0  0  0
  170.9433  152.1091  134.1385 C   0  0  0  0  0  0  0  0  0  0  0  0
  171.6100  152.9007  134.8722 O   0  0  0  0  0  0  0  0  0  0  0  0
  170.1183  151.1369  134.6626 O   0  0  0  0  0  0  0  0  0  0  0  0
  169.5165  150.4494  133.6106 C   0  0  0  0  0  0  0  0  0  0  0  0
  164.0491  148.2704  126.5580 C   0  0  0  0  0  0  0  0  0  0  0  0
  161.8895  148.1545  122.5477 C   0  0  1  0  0  0  0  0  0  0  0  0
  160.9610  148.6069  123.4826 O   0  0  0  0  0  0  0  0  0  0  0  0
  1  2  1  0
  3  2  1  6
  3  4  1  0
  4  5  1  6
  4  6  1  0
  6  7  1  1
  6  8  1  0
  8  9  1  0
  9 10  1  1
 11 10  1  6
 11 12  1  0
 12 13  1  0
 13 14  1  0
 14 15  1  6
 15 16  2  0
 14 17  1  0
 17 18  1  6
 18 19  1  0
 20 19  1  6
 20 21  1  0
 21 22  1  1
 22 23  1  0
 23 24  1  0
 24 25  1  1
 24 26  1  0
 26 27  1  0
 27 28  1  0
 28 29  1  0
 29 30  1  1
 26 31  1  1
 31 32  2  0
 32 33  1  0
 33 34  2  0
 33 35  1  0
 35 36  1  0
 17 37  1  0
  9 38  1  0
 38 39  1  1
 38  3  1  0
 37 11  1  0
 21 14  1  0
 29 24  1  0
 36 31  1  0
 29 20  1  0
M  END
$$$$
