
     RDKit          3D

 39 44  0  0  0  0  0  0  0  0999 V2000
  131.9936  136.5331  130.3358 C   0  0  0  0  0  0  0  0  0  0  0  0
  132.2555  137.8589  130.0184 O   0  0  0  0  0  0  0  0  0  0  0  0
  131.9888  138.6678  131.0957 C   0  0  2  0  0  0  0  0  0  0  0  0
  132.3276  137.9709  132.4198 C   0  0  1  0  0  0  0  0  0  0  0  0
  133.6986  137.7652  132.4811 O   0  0  0  0  0  0  0  0  0  0  0  0
  131.8233  138.8773  133.5199 C   0  0  2  0  0  0  0  0  0  0  0  0
  130.7321  138.1972  134.3273 C   0  0  0  0  0  0  0  0  0  0  0  0
  131.4290  140.1136  133.0472 O   0  0  0  0  0  0  0  0  0  0  0  0
  130.2811  139.9278  132.2835 C   0  0  1  0  0  0  0  0  0  0  0  0
  129.7880  141.1052  131.7593 O   0  0  0  0  0  0  0  0  0  0  0  0
  128.9803  141.7991  132.6584 C   0  0  1  0  0  0  0  0  0  0  0  0
  129.8999  142.4304  133.6792 C   0  0  0  0  0  0  0  0  0  0  0  0
  129.1300  143.3927  134.5546 C   0  0  0  0  0  0  0  0  0  0  0  0
  128.6389  144.5345  133.6509 C   0  0  1  0  0  0  0  0  0  0  0  0
  129.8222  144.9515  132.8601 C   0  0  0  0  0  0  0  0  0  0  0  0
  129.9382  145.9844  132.2616 O   0  0  0  0  0  0  0  0  0  0  0  0
  127.6353  143.9284  132.7173 C   0  0  2  0  0  0  0  0  0  0  0  0
  126.3782  143.4631  133.4390 C   0  0  0  0  0  0  0  0  0  0  0  0
  125.9522  144.3998  134.5303 C   0  0  0  0  0  0  0  0  0  0  0  0
  126.5418  145.7628  134.2502 C   0  0  2  0  0  0  0  0  0  0  0  0
  128.0303  145.6520  134.4314 C   0  0  2  0  0  0  0  0  0  0  0  0
  128.7062  146.9835  134.2305 C   0  0  0  0  0  0  0  0  0  0  0  0
  127.7875  148.0993  133.9194 C   0  0  0  0  0  0  0  0  0  0  0  0
  126.5348  148.1572  134.7382 C   0  0  2  0  0  0  0  0  0  0  0  0
  125.5028  148.9164  133.9179 C   0  0  0  0  0  0  0  0  0  0  0  0
  126.7186  148.9086  136.0361 C   0  0  2  0  0  0  0  0  0  0  0  0
  125.8674  148.1249  137.0525 C   0  0  0  0  0  0  0  0  0  0  0  0
  126.1782  146.6975  136.5596 C   0  0  0  0  0  0  0  0  0  0  0  0
  125.9592  146.8405  135.1032 C   0  0  2  0  0  0  0  0  0  0  0  0
  124.5542  146.8237  134.9073 O   0  0  0  0  0  0  0  0  0  0  0  0
  126.2718  150.3110  135.9906 C   0  0  0  0  0  0  0  0  0  0  0  0
  127.0134  151.4119  136.1649 C   0  0  0  0  0  0  0  0  0  0  0  0
  126.1909  152.5901  136.0410 C   0  0  0  0  0  0  0  0  0  0  0  0
  126.4984  153.8173  136.1355 O   0  0  0  0  0  0  0  0  0  0  0  0
  124.9035  152.1708  135.7818 O   0  0  0  0  0  0  0  0  0  0  0  0
  124.8928  150.7787  135.7205 C   0  0  0  0  0  0  0  0  0  0  0  0
  128.1563  142.7794  131.9080 C   0  0  0  0  0  0  0  0  0  0  0  0
  130.5136  138.9646  131.1407 C   0  0  1  0  0  0  0  0  0  0  0  0
  130.1296  139.5124  129.9187 O   0  0  0  0  0  0  0  0  0  0  0  0
  1  2  1  0
  3  2  1  6
  3  4  1  0
  4  5  1  1
  4  6  1  0
  6  7  1  6
  6  8  1  0
  8  9  1  0
  9 10  1  6
 11 10  1  6
 11 12  1  0
 12 13  1  0
 13 14  1  0
 14 15  1  6
 15 16  2  0
 14 17  1  0
 17 18  1  1
 18 19  1  0
 20 19  1  1
 20 21  1  0
 21 22  1  6
 22 23  1  0
 23 24  1  0
 24 25  1  6
 24 26  1  0
 26 27  1  0
 27 28  1  0
 28 29  1  0
 29 30  1  1
 26 31  1  6
 31 32  2  0
 32 33  1  0
 33 34  2  0
 33 35  1  0
 35 36  1  0
 17 37  1  0
  9 38  1  0
 38 39  1  6
 38  3  1  0
 37 11  1  0
 21 14  1  0
 29 24  1  0
 36 31  1  0
 29 20  1  0
M  END
$$$$
