
     RDKit          3D

 39 44  0  0  0  0  0  0  0  0999 V2000
  173.3619  149.7514  129.2366 C   0  0  0  0  0  0  0  0  0  0  0  0
  173.4701  148.3765  129.3948 O   0  0  0  0  0  0  0  0  0  0  0  0
  172.2273  147.7935  129.3551 C   0  0  2  0  0  0  0  0  0  0  0  0
  172.2623  146.3576  129.8941 C   0  0  1  0  0  0  0  0  0  0  0  0
  172.5776  146.3925  131.2451 O   0  0  0  0  0  0  0  0  0  0  0  0
  170.8950  145.7692  129.6287 C   0  0  2  0  0  0  0  0  0  0  0  0
  170.9852  144.5947  128.6707 C   0  0  0  0  0  0  0  0  0  0  0  0
  169.9840  146.7177  129.2069 O   0  0  0  0  0  0  0  0  0  0  0  0
  170.3656  147.1346  127.9357 C   0  0  1  0  0  0  0  0  0  0  0  0
  169.5185  148.0861  127.4054 O   0  0  0  0  0  0  0  0  0  0  0  0
  168.4928  147.5300  126.6432 C   0  0  1  0  0  0  0  0  0  0  0  0
  167.5291  146.8798  127.6102 C   0  0  0  0  0  0  0  0  0  0  0  0
  166.2694  146.4560  126.8900 C   0  0  0  0  0  0  0  0  0  0  0  0
  165.5812  147.7353  126.3887 C   0  0  1  0  0  0  0  0  0  0  0  0
  165.5611  148.6565  127.5508 C   0  0  0  0  0  0  0  0  0  0  0  0
  164.7716  149.5409  127.7322 O   0  0  0  0  0  0  0  0  0  0  0  0
  166.4836  148.3142  125.3414 C   0  0  2  0  0  0  0  0  0  0  0  0
  166.5736  147.4345  124.1022 C   0  0  0  0  0  0  0  0  0  0  0  0
  165.2600  146.8118  123.7328 C   0  0  0  0  0  0  0  0  0  0  0  0
  164.1496  147.6396  124.3376 C   0  0  2  0  0  0  0  0  0  0  0  0
  164.2238  147.4656  125.8293 C   0  0  2  0  0  0  0  0  0  0  0  0
  163.1125  148.2103  126.5225 C   0  0  0  0  0  0  0  0  0  0  0  0
  162.1926  148.9279  125.6144 C   0  0  0  0  0  0  0  0  0  0  0  0
  161.7658  148.1738  124.3929 C   0  0  2  0  0  0  0  0  0  0  0  0
  161.3755  149.2072  123.3469 C   0  0  0  0  0  0  0  0  0  0  0  0
  160.5562  147.3019  124.6367 C   0  0  2  0  0  0  0  0  0  0  0  0
  160.8291  146.0331  123.8075 C   0  0  0  0  0  0  0  0  0  0  0  0
  162.3424  145.9065  124.0738 C   0  0  0  0  0  0  0  0  0  0  0  0
  162.7997  147.2880  123.8060 C   0  0  2  0  0  0  0  0  0  0  0  0
  162.8506  147.4251  122.3949 O   0  0  0  0  0  0  0  0  0  0  0  0
  159.2811  147.9062  124.2150 C   0  0  0  0  0  0  0  0  0  0  0  0
  158.0433  147.5215  124.5497 C   0  0  0  0  0  0  0  0  0  0  0  0
  157.0691  148.3804  123.9227 C   0  0  0  0  0  0  0  0  0  0  0  0
  155.8019  148.3599  123.9793 O   0  0  0  0  0  0  0  0  0  0  0  0
  157.7586  149.3170  123.1825 O   0  0  0  0  0  0  0  0  0  0  0  0
  159.1245  149.0885  123.3371 C   0  0  0  0  0  0  0  0  0  0  0  0
  167.8788  148.5952  125.8118 C   0  0  0  0  0  0  0  0  0  0  0  0
  171.7702  147.6958  127.9241 C   0  0  1  0  0  0  0  0  0  0  0  0
  171.8130  148.9657  127.3527 O   0  0  0  0  0  0  0  0  0  0  0  0
  1  2  1  0
  3  2  1  6
  3  4  1  0
  4  5  1  1
  4  6  1  0
  6  7  1  6
  6  8  1  0
  8  9  1  0
  9 10  1  1
 11 10  1  1
 11 12  1  0
 12 13  1  0
 13 14  1  0
 14 15  1  1
 15 16  2  0
 14 17  1  0
 17 18  1  6
 18 19  1  0
 20 19  1  6
 20 21  1  0
 21 22  1  1
 22 23  1  0
 23 24  1  0
 24 25  1  6
 24 26  1  0
 26 27  1  0
 27 28  1  0
 28 29  1  0
 29 30  1  6
 26 31  1  6
 31 32  2  0
 32 33  1  0
 33 34  2  0
 33 35  1  0
 35 36  1  0
 17 37  1  0
  9 38  1  0
 38 39  1  1
 38  3  1  0
 37 11  1  0
 21 14  1  0
 29 24  1  0
 36 31  1  0
 29 20  1  0
M  END
$$$$
