
     RDKit          3D

 39 44  0  0  0  0  0  0  0  0999 V2000
  132.1414  136.6093  130.4267 C   0  0  0  0  0  0  0  0  0  0  0  0
  131.4541  137.7899  130.1794 O   0  0  0  0  0  0  0  0  0  0  0  0
  131.1003  138.3913  131.3622 C   0  0  2  0  0  0  0  0  0  0  0  0
  130.4681  137.3885  132.3360 C   0  0  1  0  0  0  0  0  0  0  0  0
  131.4264  136.4546  132.7037 O   0  0  0  0  0  0  0  0  0  0  0  0
  129.9594  138.1958  133.5088 C   0  0  2  0  0  0  0  0  0  0  0  0
  128.4492  138.0917  133.6262 C   0  0  0  0  0  0  0  0  0  0  0  0
  130.3908  139.5073  133.4749 O   0  0  0  0  0  0  0  0  0  0  0  0
  129.7597  140.1325  132.4043 C   0  0  1  0  0  0  0  0  0  0  0  0
  130.1122  141.4602  132.2735 O   0  0  0  0  0  0  0  0  0  0  0  0
  129.2614  142.3152  132.9718 C   0  0  1  0  0  0  0  0  0  0  0  0
  130.0882  142.9696  134.0556 C   0  0  0  0  0  0  0  0  0  0  0  0
  129.3055  144.0845  134.7111 C   0  0  0  0  0  0  0  0  0  0  0  0
  129.0662  145.1609  133.6408 C   0  0  1  0  0  0  0  0  0  0  0  0
  130.3855  145.3849  133.0013 C   0  0  0  0  0  0  0  0  0  0  0  0
  131.2760  146.0547  133.4447 O   0  0  0  0  0  0  0  0  0  0  0  0
  128.1471  144.5482  132.6279 C   0  0  2  0  0  0  0  0  0  0  0  0
  126.7600  144.2755  133.1928 C   0  0  0  0  0  0  0  0  0  0  0  0
  126.2830  145.3581  134.1148 C   0  0  0  0  0  0  0  0  0  0  0  0
  127.0428  146.6259  133.8000 C   0  0  2  0  0  0  0  0  0  0  0  0
  128.4718  146.4051  134.2126 C   0  0  2  0  0  0  0  0  0  0  0  0
  129.3021  147.6427  133.9917 C   0  0  0  0  0  0  0  0  0  0  0  0
  128.5556  148.7948  133.4427 C   0  0  0  0  0  0  0  0  0  0  0  0
  127.2128  149.0502  134.0547 C   0  0  2  0  0  0  0  0  0  0  0  0
  126.3899  149.8042  133.0210 C   0  0  0  0  0  0  0  0  0  0  0  0
  127.2883  149.9181  135.2892 C   0  0  2  0  0  0  0  0  0  0  0  0
  126.2267  149.3263  136.2351 C   0  0  0  0  0  0  0  0  0  0  0  0
  126.4557  147.8323  135.9305 C   0  0  0  0  0  0  0  0  0  0  0  0
  126.4596  147.8362  134.4509 C   0  0  2  0  0  0  0  0  0  0  0  0
  125.1019  147.9217  134.0483 O   0  0  0  0  0  0  0  0  0  0  0  0
  126.9985  151.3413  135.0457 C   0  0  0  0  0  0  0  0  0  0  0  0
  127.6481  152.4040  135.5367 C   0  0  0  0  0  0  0  0  0  0  0  0
  127.0456  153.6219  135.0533 C   0  0  0  0  0  0  0  0  0  0  0  0
  127.3528  154.8323  135.2763 O   0  0  0  0  0  0  0  0  0  0  0  0
  125.9912  153.2671  134.2392 O   0  0  0  0  0  0  0  0  0  0  0  0
  125.9228  151.8766  134.1802 C   0  0  0  0  0  0  0  0  0  0  0  0
  128.6562  143.2773  132.0175 C   0  0  0  0  0  0  0  0  0  0  0  0
  130.0510  139.4367  131.0932 C   0  0  1  0  0  0  0  0  0  0  0  0
  130.5379  140.3241  130.1359 O   0  0  0  0  0  0  0  0  0  0  0  0
  1  2  1  0
  3  2  1  6
  3  4  1  0
  4  5  1  1
  4  6  1  0
  6  7  1  6
  6  8  1  0
  8  9  1  0
  9 10  1  6
 11 10  1  6
 11 12  1  0
 12 13  1  0
 13 14  1  0
 14 15  1  6
 15 16  2  0
 14 17  1  0
 17 18  1  1
 18 19  1  0
 20 19  1  1
 20 21  1  0
 21 22  1  6
 22 23  1  0
 23 24  1  0
 24 25  1  6
 24 26  1  0
 26 27  1  0
 27 28  1  0
 28 29  1  0
 29 30  1  6
 26 31  1  6
 31 32  2  0
 32 33  1  0
 33 34  2  0
 33 35  1  0
 35 36  1  0
 17 37  1  0
  9 38  1  0
 38 39  1  6
 38  3  1  0
 37 11  1  0
 21 14  1  0
 29 24  1  0
 36 31  1  0
 29 20  1  0
M  END
$$$$
