
     RDKit          3D

 39 44  0  0  0  0  0  0  0  0999 V2000
  207.8894  131.1111  133.6521 C   0  0  0  0  0  0  0  0  0  0  0  0
  207.4105  131.4740  134.9035 O   0  0  0  0  0  0  0  0  0  0  0  0
  206.1647  132.0406  134.7904 C   0  0  2  0  0  0  0  0  0  0  0  0
  205.0597  130.9764  134.8022 C   0  0  1  0  0  0  0  0  0  0  0  0
  205.0413  130.3621  136.0465 O   0  0  0  0  0  0  0  0  0  0  0  0
  203.7689  131.6984  134.4884 C   0  0  2  0  0  0  0  0  0  0  0  0
  203.1714  131.2017  133.1840 C   0  0  0  0  0  0  0  0  0  0  0  0
  203.9134  133.0719  134.5064 O   0  0  0  0  0  0  0  0  0  0  0  0
  204.7090  133.4275  133.4220 C   0  0  1  0  0  0  0  0  0  0  0  0
  204.9193  134.7884  133.3332 O   0  0  0  0  0  0  0  0  0  0  0  0
  203.8809  135.4531  132.6834 C   0  0  1  0  0  0  0  0  0  0  0  0
  203.3123  136.4498  133.6682 C   0  0  0  0  0  0  0  0  0  0  0  0
  202.3386  137.3752  132.9748 C   0  0  0  0  0  0  0  0  0  0  0  0
  203.1404  138.1909  131.9486 C   0  0  1  0  0  0  0  0  0  0  0  0
  204.3290  138.6914  132.6809 C   0  0  0  0  0  0  0  0  0  0  0  0
  204.3207  139.5119  133.5556 O   0  0  0  0  0  0  0  0  0  0  0  0
  203.6016  137.2172  130.9068 C   0  0  2  0  0  0  0  0  0  0  0  0
  202.4469  136.6415  130.0988 C   0  0  0  0  0  0  0  0  0  0  0  0
  201.3865  137.6571  129.7924 C   0  0  0  0  0  0  0  0  0  0  0  0
  202.0002  139.0350  129.8862 C   0  0  2  0  0  0  0  0  0  0  0  0
  202.3276  139.2812  131.3329 C   0  0  2  0  0  0  0  0  0  0  0  0
  202.8933  140.6625  131.5381 C   0  0  0  0  0  0  0  0  0  0  0  0
  202.9930  141.4756  130.3074 C   0  0  0  0  0  0  0  0  0  0  0  0
  201.8071  141.4207  129.3943 C   0  0  2  0  0  0  0  0  0  0  0  0
  202.3039  141.7706  127.9997 C   0  0  0  0  0  0  0  0  0  0  0  0
  200.7418  142.4285  129.7580 C   0  0  2  0  0  0  0  0  0  0  0  0
  199.4156  141.6910  129.4952 C   0  0  0  0  0  0  0  0  0  0  0  0
  199.8240  140.2953  130.0077 C   0  0  0  0  0  0  0  0  0  0  0  0
  201.1241  140.1065  129.3270 C   0  0  2  0  0  0  0  0  0  0  0  0
  200.8249  139.7530  127.9860 O   0  0  0  0  0  0  0  0  0  0  0  0
  200.7866  143.6680  128.9641 C   0  0  0  0  0  0  0  0  0  0  0  0
  201.6431  144.6893  129.0894 C   0  0  0  0  0  0  0  0  0  0  0  0
  201.3444  145.7109  128.1162 C   0  0  0  0  0  0  0  0  0  0  0  0
  201.9088  146.8263  127.9001 O   0  0  0  0  0  0  0  0  0  0  0  0
  200.2624  145.2775  127.3801 O   0  0  0  0  0  0  0  0  0  0  0  0
  199.8852  144.0183  127.8425 C   0  0  0  0  0  0  0  0  0  0  0  0
  204.4080  136.0725  131.4419 C   0  0  0  0  0  0  0  0  0  0  0  0
  206.0579  132.7445  133.4639 C   0  0  1  0  0  0  0  0  0  0  0  0
  207.1026  133.6599  133.3574 O   0  0  0  0  0  0  0  0  0  0  0  0
  1  2  1  0
  3  2  1  6
  3  4  1  0
  4  5  1  1
  4  6  1  0
  6  7  1  6
  6  8  1  0
  8  9  1  0
  9 10  1  1
 11 10  1  1
 11 12  1  0
 12 13  1  0
 13 14  1  0
 14 15  1  1
 15 16  2  0
 14 17  1  0
 17 18  1  1
 18 19  1  0
 20 19  1  1
 20 21  1  0
 21 22  1  6
 22 23  1  0
 23 24  1  0
 24 25  1  6
 24 26  1  0
 26 27  1  0
 27 28  1  0
 28 29  1  0
 29 30  1  6
 26 31  1  6
 31 32  2  0
 32 33  1  0
 33 34  2  0
 33 35  1  0
 35 36  1  0
 17 37  1  0
  9 38  1  0
 38 39  1  1
 38  3  1  0
 37 11  1  0
 21 14  1  0
 29 24  1  0
 36 31  1  0
 29 20  1  0
M  END
$$$$
