
     RDKit          3D

 39 44  0  0  0  0  0  0  0  0999 V2000
  154.9736  158.5399  121.8375 C   0  0  0  0  0  0  0  0  0  0  0  0
  155.6620  157.3535  122.0513 O   0  0  0  0  0  0  0  0  0  0  0  0
  156.9967  157.6072  122.2520 C   0  0  2  0  0  0  0  0  0  0  0  0
  157.4543  158.8528  121.4821 C   0  0  1  0  0  0  0  0  0  0  0  0
  156.8145  159.9661  122.0083 O   0  0  0  0  0  0  0  0  0  0  0  0
  158.9574  158.9181  121.6318 C   0  0  2  0  0  0  0  0  0  0  0  0
  159.6446  158.7755  120.2854 C   0  0  0  0  0  0  0  0  0  0  0  0
  159.4362  158.0145  122.5601 O   0  0  0  0  0  0  0  0  0  0  0  0
  159.2578  156.7374  122.0381 C   0  0  1  0  0  0  0  0  0  0  0  0
  159.7086  155.7438  122.8828 O   0  0  0  0  0  0  0  0  0  0  0  0
  161.0631  155.8678  123.1865 C   0  0  1  0  0  0  0  0  0  0  0  0
  161.1599  156.7414  124.4168 C   0  0  0  0  0  0  0  0  0  0  0  0
  162.5733  156.7372  124.9531 C   0  0  0  0  0  0  0  0  0  0  0  0
  162.8787  155.3040  125.4157 C   0  0  1  0  0  0  0  0  0  0  0  0
  161.7146  154.8962  126.2392 C   0  0  0  0  0  0  0  0  0  0  0  0
  161.7109  154.7587  127.4306 O   0  0  0  0  0  0  0  0  0  0  0  0
  162.9018  154.4596  124.1778 C   0  0  2  0  0  0  0  0  0  0  0  0
  164.0660  154.8066  123.2602 C   0  0  0  0  0  0  0  0  0  0  0  0
  165.3280  155.1135  124.0105 C   0  0  0  0  0  0  0  0  0  0  0  0
  165.2406  154.4758  125.3778 C   0  0  2  0  0  0  0  0  0  0  0  0
  164.1770  155.2098  126.1465 C   0  0  2  0  0  0  0  0  0  0  0  0
  164.0559  154.6820  127.5525 C   0  0  0  0  0  0  0  0  0  0  0  0
  164.9949  153.5888  127.8824 C   0  0  0  0  0  0  0  0  0  0  0  0
  166.4036  153.7775  127.4103 C   0  0  2  0  0  0  0  0  0  0  0  0
  167.0188  152.3920  127.2833 C   0  0  0  0  0  0  0  0  0  0  0  0
  167.2494  154.5568  128.3902 C   0  0  2  0  0  0  0  0  0  0  0  0
  168.1492  155.4350  127.5008 C   0  0  0  0  0  0  0  0  0  0  0  0
  167.1155  155.7973  126.4158 C   0  0  0  0  0  0  0  0  0  0  0  0
  166.5438  154.4682  126.1059 C   0  0  2  0  0  0  0  0  0  0  0  0
  167.4890  153.8106  125.2771 O   0  0  0  0  0  0  0  0  0  0  0  0
  168.0843  153.7188  129.2674 C   0  0  0  0  0  0  0  0  0  0  0  0
  168.8481  154.1156  130.2928 C   0  0  0  0  0  0  0  0  0  0  0  0
  169.5053  152.9801  130.8917 C   0  0  0  0  0  0  0  0  0  0  0  0
  170.3052  152.9211  131.8746 O   0  0  0  0  0  0  0  0  0  0  0  0
  169.1147  151.8589  130.1911 O   0  0  0  0  0  0  0  0  0  0  0  0
  168.2257  152.2467  129.1906 C   0  0  0  0  0  0  0  0  0  0  0  0
  161.6420  154.5131  123.3673 C   0  0  0  0  0  0  0  0  0  0  0  0
  157.8069  156.4579  121.7145 C   0  0  1  0  0  0  0  0  0  0  0  0
  157.3636  155.2797  122.3113 O   0  0  0  0  0  0  0  0  0  0  0  0
  1  2  1  0
  3  2  1  6
  3  4  1  0
  4  5  1  1
  4  6  1  0
  6  7  1  6
  6  8  1  0
  8  9  1  0
  9 10  1  1
 11 10  1  1
 11 12  1  0
 12 13  1  0
 13 14  1  0
 14 15  1  1
 15 16  2  0
 14 17  1  0
 17 18  1  6
 18 19  1  0
 20 19  1  6
 20 21  1  0
 21 22  1  1
 22 23  1  0
 23 24  1  0
 24 25  1  6
 24 26  1  0
 26 27  1  0
 27 28  1  0
 28 29  1  0
 29 30  1  6
 26 31  1  6
 31 32  2  0
 32 33  1  0
 33 34  2  0
 33 35  1  0
 35 36  1  0
 17 37  1  0
  9 38  1  0
 38 39  1  1
 38  3  1  0
 37 11  1  0
 21 14  1  0
 29 24  1  0
 36 31  1  0
 29 20  1  0
M  END
$$$$
