
     RDKit          3D

 39 44  0  0  0  0  0  0  0  0999 V2000
  174.8659  143.7538  123.2291 C   0  0  0  0  0  0  0  0  0  0  0  0
  174.7891  144.4088  124.4507 O   0  0  0  0  0  0  0  0  0  0  0  0
  173.5915  144.1338  125.0638 C   0  0  2  0  0  0  0  0  0  0  0  0
  173.0742  142.7394  124.6874 C   0  0  1  0  0  0  0  0  0  0  0  0
  173.9434  141.7853  125.1974 O   0  0  0  0  0  0  0  0  0  0  0  0
  171.6821  142.6303  125.2671 C   0  0  2  0  0  0  0  0  0  0  0  0
  170.6467  142.4694  124.1684 C   0  0  0  0  0  0  0  0  0  0  0  0
  171.3807  143.6747  126.1191 O   0  0  0  0  0  0  0  0  0  0  0  0
  171.2792  144.8306  125.3516 C   0  0  1  0  0  0  0  0  0  0  0  0
  170.9728  145.9480  126.1010 O   0  0  0  0  0  0  0  0  0  0  0  0
  169.6397  146.3339  125.9733 C   0  0  1  0  0  0  0  0  0  0  0  0
  169.0859  146.4727  127.3734 C   0  0  0  0  0  0  0  0  0  0  0  0
  167.7171  147.1131  127.3349 C   0  0  0  0  0  0  0  0  0  0  0  0
  167.8996  148.5417  126.7989 C   0  0  1  0  0  0  0  0  0  0  0  0
  169.0247  149.1163  127.5756 C   0  0  0  0  0  0  0  0  0  0  0  0
  169.2623  150.2844  127.7080 O   0  0  0  0  0  0  0  0  0  0  0  0
  168.3329  148.4017  125.3710 C   0  0  2  0  0  0  0  0  0  0  0  0
  167.2410  147.8136  124.4881 C   0  0  0  0  0  0  0  0  0  0  0  0
  165.8736  148.3232  124.8348 C   0  0  0  0  0  0  0  0  0  0  0  0
  166.0220  149.6404  125.5605 C   0  0  2  0  0  0  0  0  0  0  0  0
  166.6465  149.3471  126.8966 C   0  0  2  0  0  0  0  0  0  0  0  0
  166.7816  150.5991  127.7237 C   0  0  0  0  0  0  0  0  0  0  0  0
  166.2711  151.8246  127.0730 C   0  0  0  0  0  0  0  0  0  0  0  0
  164.9573  151.6865  126.3673 C   0  0  2  0  0  0  0  0  0  0  0  0
  164.9069  152.7751  125.3059 C   0  0  0  0  0  0  0  0  0  0  0  0
  163.7756  151.8980  127.2847 C   0  0  2  0  0  0  0  0  0  0  0  0
  162.7318  150.8735  126.8021 C   0  0  0  0  0  0  0  0  0  0  0  0
  163.6856  149.7012  126.4967 C   0  0  0  0  0  0  0  0  0  0  0  0
  164.7333  150.3803  125.7026 C   0  0  2  0  0  0  0  0  0  0  0  0
  164.1978  150.5535  124.4004 O   0  0  0  0  0  0  0  0  0  0  0  0
  163.2032  153.2538  127.2296 C   0  0  0  0  0  0  0  0  0  0  0  0
  162.5298  153.8972  128.1914 C   0  0  0  0  0  0  0  0  0  0  0  0
  162.1403  155.2082  127.7337 C   0  0  0  0  0  0  0  0  0  0  0  0
  161.4963  156.1253  128.3281 O   0  0  0  0  0  0  0  0  0  0  0  0
  162.6026  155.3501  126.4428 O   0  0  0  0  0  0  0  0  0  0  0  0
  163.2810  154.1874  126.0827 C   0  0  0  0  0  0  0  0  0  0  0  0
  169.5747  147.5849  125.1772 C   0  0  0  0  0  0  0  0  0  0  0  0
  172.5524  145.1124  124.5851 C   0  0  1  0  0  0  0  0  0  0  0  0
  173.0163  146.4059  124.8143 O   0  0  0  0  0  0  0  0  0  0  0  0
  1  2  1  0
  3  2  1  6
  3  4  1  0
  4  5  1  1
  4  6  1  0
  6  7  1  6
  6  8  1  0
  8  9  1  0
  9 10  1  1
 11 10  1  1
 11 12  1  0
 12 13  1  0
 13 14  1  0
 14 15  1  1
 15 16  2  0
 14 17  1  0
 17 18  1  6
 18 19  1  0
 20 19  1  1
 20 21  1  0
 21 22  1  6
 22 23  1  0
 23 24  1  0
 24 25  1  6
 24 26  1  0
 26 27  1  0
 27 28  1  0
 28 29  1  0
 29 30  1  6
 26 31  1  6
 31 32  2  0
 32 33  1  0
 33 34  2  0
 33 35  1  0
 35 36  1  0
 17 37  1  0
  9 38  1  0
 38 39  1  1
 38  3  1  0
 37 11  1  0
 21 14  1  0
 29 24  1  0
 36 31  1  0
 29 20  1  0
M  END
$$$$
