
     RDKit          3D

 39 44  0  0  0  0  0  0  0  0999 V2000
  191.1578  166.8363  133.3935 C   0  0  0  0  0  0  0  0  0  0  0  0
  190.9725  165.4836  133.6448 O   0  0  0  0  0  0  0  0  0  0  0  0
  191.7993  164.7333  132.8452 C   0  0  2  0  0  0  0  0  0  0  0  0
  192.9444  165.5776  132.2712 C   0  0  1  0  0  0  0  0  0  0  0  0
  193.7633  165.9909  133.3126 O   0  0  0  0  0  0  0  0  0  0  0  0
  193.6655  164.6974  131.2755 C   0  0  2  0  0  0  0  0  0  0  0  0
  193.5656  165.2688  129.8724 C   0  0  0  0  0  0  0  0  0  0  0  0
  193.2491  163.3818  131.3339 O   0  0  0  0  0  0  0  0  0  0  0  0
  191.9409  163.3312  130.8630 C   0  0  1  0  0  0  0  0  0  0  0  0
  191.4167  162.0548  130.8693 O   0  0  0  0  0  0  0  0  0  0  0  0
  191.4077  161.4693  129.6046 C   0  0  1  0  0  0  0  0  0  0  0  0
  192.5603  160.4915  129.5644 C   0  0  0  0  0  0  0  0  0  0  0  0
  192.4847  159.6427  128.3158 C   0  0  0  0  0  0  0  0  0  0  0  0
  191.2050  158.7982  128.4181 C   0  0  1  0  0  0  0  0  0  0  0  0
  191.2256  158.2099  129.7794 C   0  0  0  0  0  0  0  0  0  0  0  0
  190.4847  157.3601  130.1883 O   0  0  0  0  0  0  0  0  0  0  0  0
  190.0594  159.7609  128.3358 C   0  0  2  0  0  0  0  0  0  0  0  0
  189.9552  160.4236  126.9692 C   0  0  0  0  0  0  0  0  0  0  0  0
  190.2572  159.4828  125.8407 C   0  0  0  0  0  0  0  0  0  0  0  0
  190.0423  158.0675  126.3252 C   0  0  2  0  0  0  0  0  0  0  0  0
  191.1155  157.7732  127.3365 C   0  0  2  0  0  0  0  0  0  0  0  0
  191.0207  156.3554  127.8374 C   0  0  0  0  0  0  0  0  0  0  0  0
  189.9287  155.5616  127.2349 C   0  0  0  0  0  0  0  0  0  0  0  0
  189.7591  155.7086  125.7541 C   0  0  2  0  0  0  0  0  0  0  0  0
  188.3142  155.3552  125.4354 C   0  0  0  0  0  0  0  0  0  0  0  0
  190.6370  154.7628  124.9682 C   0  0  2  0  0  0  0  0  0  0  0  0
  191.0857  155.5872  123.7471 C   0  0  0  0  0  0  0  0  0  0  0  0
  191.2910  156.9442  124.4496 C   0  0  0  0  0  0  0  0  0  0  0  0
  190.0334  157.0641  125.2200 C   0  0  2  0  0  0  0  0  0  0  0  0
  189.0346  157.4616  124.2942 O   0  0  0  0  0  0  0  0  0  0  0  0
  189.9540  153.5386  124.5171 C   0  0  0  0  0  0  0  0  0  0  0  0
  190.4332  152.2885  124.5139 C   0  0  0  0  0  0  0  0  0  0  0  0
  189.4440  151.3783  123.9911 C   0  0  0  0  0  0  0  0  0  0  0  0
  189.4955  150.1223  123.8208 O   0  0  0  0  0  0  0  0  0  0  0  0
  188.3278  152.1206  123.6695 O   0  0  0  0  0  0  0  0  0  0  0  0
  188.5736  153.4548  123.9876 C   0  0  0  0  0  0  0  0  0  0  0  0
  190.0825  160.8421  129.3737 C   0  0  0  0  0  0  0  0  0  0  0  0
  191.0183  164.2231  131.6636 C   0  0  1  0  0  0  0  0  0  0  0  0
  189.9050  163.5272  132.1295 O   0  0  0  0  0  0  0  0  0  0  0  0
  1  2  1  0
  3  2  1  1
  3  4  1  0
  4  5  1  1
  4  6  1  0
  6  7  1  6
  6  8  1  0
  8  9  1  0
  9 10  1  1
 11 10  1  1
 11 12  1  0
 12 13  1  0
 13 14  1  0
 14 15  1  1
 15 16  2  0
 14 17  1  0
 17 18  1  6
 18 19  1  0
 20 19  1  6
 20 21  1  0
 21 22  1  1
 22 23  1  0
 23 24  1  0
 24 25  1  1
 24 26  1  0
 26 27  1  0
 27 28  1  0
 28 29  1  0
 29 30  1  6
 26 31  1  6
 31 32  2  0
 32 33  1  0
 33 34  2  0
 33 35  1  0
 35 36  1  0
 17 37  1  0
  9 38  1  0
 38 39  1  1
 38  3  1  0
 37 11  1  0
 21 14  1  0
 29 24  1  0
 36 31  1  0
 29 20  1  0
M  END
$$$$
