
     RDKit          3D

 39 44  0  0  0  0  0  0  0  0999 V2000
  129.8661  135.3882  132.3707 C   0  0  0  0  0  0  0  0  0  0  0  0
  128.9233  136.2590  131.8416 O   0  0  0  0  0  0  0  0  0  0  0  0
  129.4020  137.5460  131.8580 C   0  0  2  0  0  0  0  0  0  0  0  0
  130.9247  137.5820  131.6743 C   0  0  1  0  0  0  0  0  0  0  0  0
  131.2346  137.1210  130.4026 O   0  0  0  0  0  0  0  0  0  0  0  0
  131.3469  139.0171  131.8940 C   0  0  2  0  0  0  0  0  0  0  0  0
  132.2603  139.1365  133.1009 C   0  0  0  0  0  0  0  0  0  0  0  0
  130.2707  139.8797  131.9669 O   0  0  0  0  0  0  0  0  0  0  0  0
  129.5850  139.6015  133.1450 C   0  0  1  0  0  0  0  0  0  0  0  0
  128.4838  140.4121  133.3300 O   0  0  0  0  0  0  0  0  0  0  0  0
  128.7982  141.6121  133.9653 C   0  0  1  0  0  0  0  0  0  0  0  0
  129.4444  142.5027  132.9281 C   0  0  0  0  0  0  0  0  0  0  0  0
  129.6046  143.9056  133.4680 C   0  0  0  0  0  0  0  0  0  0  0  0
  128.1929  144.4664  133.7001 C   0  0  1  0  0  0  0  0  0  0  0  0
  127.4405  144.1744  132.4559 C   0  0  0  0  0  0  0  0  0  0  0  0
  126.2496  144.2326  132.3254 O   0  0  0  0  0  0  0  0  0  0  0  0
  127.5983  143.6584  134.8135 C   0  0  2  0  0  0  0  0  0  0  0  0
  128.3086  143.8876  136.1404 C   0  0  0  0  0  0  0  0  0  0  0  0
  128.7044  145.3191  136.3498 C   0  0  0  0  0  0  0  0  0  0  0  0
  127.8309  146.1911  135.4778 C   0  0  2  0  0  0  0  0  0  0  0  0
  128.2109  145.9178  134.0488 C   0  0  2  0  0  0  0  0  0  0  0  0
  127.4308  146.7894  133.0993 C   0  0  0  0  0  0  0  0  0  0  0  0
  126.4872  147.7210  133.7532 C   0  0  0  0  0  0  0  0  0  0  0  0
  127.0108  148.4343  134.9616 C   0  0  2  0  0  0  0  0  0  0  0  0
  125.8056  148.8228  135.8047 C   0  0  0  0  0  0  0  0  0  0  0  0
  127.7468  149.7077  134.6158 C   0  0  2  0  0  0  0  0  0  0  0  0
  128.9176  149.7531  135.6155 C   0  0  0  0  0  0  0  0  0  0  0  0
  129.2697  148.2521  135.6243 C   0  0  0  0  0  0  0  0  0  0  0  0
  127.9341  147.6429  135.8097 C   0  0  2  0  0  0  0  0  0  0  0  0
  127.6169  147.7872  137.1849 O   0  0  0  0  0  0  0  0  0  0  0  0
  126.9348  150.9293  134.7462 C   0  0  0  0  0  0  0  0  0  0  0  0
  126.2264  151.5463  133.7924 C   0  0  0  0  0  0  0  0  0  0  0  0
  125.5734  152.7126  134.3341 C   0  0  0  0  0  0  0  0  0  0  0  0
  124.8175  153.5629  133.7729 O   0  0  0  0  0  0  0  0  0  0  0  0
  125.9088  152.7921  135.6688 O   0  0  0  0  0  0  0  0  0  0  0  0
  126.7299  151.7121  135.9865 C   0  0  0  0  0  0  0  0  0  0  0  0
  127.5621  142.1819  134.5571 C   0  0  0  0  0  0  0  0  0  0  0  0
  129.1250  138.1617  133.2035 C   0  0  1  0  0  0  0  0  0  0  0  0
  127.7602  138.0671  133.4668 O   0  0  0  0  0  0  0  0  0  0  0  0
  1  2  1  0
  3  2  1  1
  3  4  1  0
  4  5  1  6
  4  6  1  0
  6  7  1  1
  6  8  1  0
  8  9  1  0
  9 10  1  6
 11 10  1  6
 11 12  1  0
 12 13  1  0
 13 14  1  0
 14 15  1  6
 15 16  2  0
 14 17  1  0
 17 18  1  1
 18 19  1  0
 20 19  1  1
 20 21  1  0
 21 22  1  6
 22 23  1  0
 23 24  1  0
 24 25  1  1
 24 26  1  0
 26 27  1  0
 27 28  1  0
 28 29  1  0
 29 30  1  1
 26 31  1  1
 31 32  2  0
 32 33  1  0
 33 34  2  0
 33 35  1  0
 35 36  1  0
 17 37  1  0
  9 38  1  0
 38 39  1  6
 38  3  1  0
 37 11  1  0
 21 14  1  0
 29 24  1  0
 36 31  1  0
 29 20  1  0
M  END
$$$$
