
     RDKit          3D

 39 44  0  0  0  0  0  0  0  0999 V2000
  203.7242  125.6320  133.2751 C   0  0  0  0  0  0  0  0  0  0  0  0
  202.8369  126.3745  132.5079 O   0  0  0  0  0  0  0  0  0  0  0  0
  203.4223  127.5506  132.1079 C   0  0  2  0  0  0  0  0  0  0  0  0
  204.5569  127.3017  131.1057 C   0  0  1  0  0  0  0  0  0  0  0  0
  204.0186  126.7769  129.9392 O   0  0  0  0  0  0  0  0  0  0  0  0
  205.2336  128.6361  130.8876 C   0  0  2  0  0  0  0  0  0  0  0  0
  206.6762  128.5977  131.3595 C   0  0  0  0  0  0  0  0  0  0  0  0
  204.5293  129.6839  131.4476 O   0  0  0  0  0  0  0  0  0  0  0  0
  204.6019  129.5509  132.8306 C   0  0  1  0  0  0  0  0  0  0  0  0
  203.9334  130.5536  133.5026 O   0  0  0  0  0  0  0  0  0  0  0  0
  204.3959  131.8259  133.1714 C   0  0  1  0  0  0  0  0  0  0  0  0
  204.0832  132.0405  131.7077 C   0  0  0  0  0  0  0  0  0  0  0  0
  204.3379  133.4799  131.3224 C   0  0  0  0  0  0  0  0  0  0  0  0
  203.3393  134.3435  132.1088 C   0  0  1  0  0  0  0  0  0  0  0  0
  202.0198  133.6924  131.9235 C   0  0  0  0  0  0  0  0  0  0  0  0
  201.2682  133.8769  131.0072 O   0  0  0  0  0  0  0  0  0  0  0  0
  203.7273  134.2249  133.5515 C   0  0  2  0  0  0  0  0  0  0  0  0
  205.0776  134.8643  133.8439 C   0  0  0  0  0  0  0  0  0  0  0  0
  205.2936  136.1415  133.0876 C   0  0  0  0  0  0  0  0  0  0  0  0
  203.9456  136.7005  132.6947 C   0  0  2  0  0  0  0  0  0  0  0  0
  203.3572  135.7703  131.6702 C   0  0  2  0  0  0  0  0  0  0  0  0
  202.0299  136.2776  131.1694 C   0  0  0  0  0  0  0  0  0  0  0  0
  201.5980  137.5611  131.7628 C   0  0  0  0  0  0  0  0  0  0  0  0
  202.6587  138.6118  131.8812 C   0  0  2  0  0  0  0  0  0  0  0  0
  202.2332  139.5479  133.0023 C   0  0  0  0  0  0  0  0  0  0  0  0
  202.7989  139.4451  130.6287 C   0  0  2  0  0  0  0  0  0  0  0  0
  204.3138  139.6935  130.5053 C   0  0  0  0  0  0  0  0  0  0  0  0
  204.8112  138.3068  130.9599 C   0  0  0  0  0  0  0  0  0  0  0  0
  204.0167  138.1041  132.1915 C   0  0  2  0  0  0  0  0  0  0  0  0
  204.6374  138.8853  133.2000 O   0  0  0  0  0  0  0  0  0  0  0  0
  202.0867  140.7332  130.6772 C   0  0  0  0  0  0  0  0  0  0  0  0
  201.1086  141.1581  129.8678 C   0  0  0  0  0  0  0  0  0  0  0  0
  200.6820  142.4802  130.2553 C   0  0  0  0  0  0  0  0  0  0  0  0
  199.7909  143.2325  129.7559 O   0  0  0  0  0  0  0  0  0  0  0  0
  201.4402  142.8575  131.3430 O   0  0  0  0  0  0  0  0  0  0  0  0
  202.3103  141.8168  131.6616 C   0  0  0  0  0  0  0  0  0  0  0  0
  203.7587  132.8193  134.0714 C   0  0  0  0  0  0  0  0  0  0  0  0
  204.0518  128.2221  133.2992 C   0  0  1  0  0  0  0  0  0  0  0  0
  203.0818  128.3851  134.2858 O   0  0  0  0  0  0  0  0  0  0  0  0
  1  2  1  0
  3  2  1  1
  3  4  1  0
  4  5  1  6
  4  6  1  0
  6  7  1  1
  6  8  1  0
  8  9  1  0
  9 10  1  1
 11 10  1  1
 11 12  1  0
 12 13  1  0
 13 14  1  0
 14 15  1  1
 15 16  2  0
 14 17  1  0
 17 18  1  6
 18 19  1  0
 20 19  1  6
 20 21  1  0
 21 22  1  1
 22 23  1  0
 23 24  1  0
 24 25  1  1
 24 26  1  0
 26 27  1  0
 27 28  1  0
 28 29  1  0
 29 30  1  1
 26 31  1  1
 31 32  2  0
 32 33  1  0
 33 34  2  0
 33 35  1  0
 35 36  1  0
 17 37  1  0
  9 38  1  0
 38 39  1  1
 38  3  1  0
 37 11  1  0
 21 14  1  0
 29 24  1  0
 36 31  1  0
 29 20  1  0
M  END
$$$$
