
     RDKit          3D

 39 44  0  0  0  0  0  0  0  0999 V2000
  134.1933  139.0528  129.1129 C   0  0  0  0  0  0  0  0  0  0  0  0
  133.0875  138.4342  129.6803 O   0  0  0  0  0  0  0  0  0  0  0  0
  132.6709  139.1282  130.7896 C   0  0  2  0  0  0  0  0  0  0  0  0
  132.7955  138.2810  132.0625 C   0  0  1  0  0  0  0  0  0  0  0  0
  134.1385  138.0289  132.3046 O   0  0  0  0  0  0  0  0  0  0  0  0
  132.1419  139.0764  133.1698 C   0  0  2  0  0  0  0  0  0  0  0  0
  130.9319  138.3452  133.7233 C   0  0  0  0  0  0  0  0  0  0  0  0
  131.8401  140.3683  132.7857 O   0  0  0  0  0  0  0  0  0  0  0  0
  130.8191  140.3014  131.8429 C   0  0  1  0  0  0  0  0  0  0  0  0
  130.4268  141.5432  131.3867 O   0  0  0  0  0  0  0  0  0  0  0  0
  129.6160  142.2202  132.2959 C   0  0  1  0  0  0  0  0  0  0  0  0
  130.5348  142.8687  133.3066 C   0  0  0  0  0  0  0  0  0  0  0  0
  129.7561  143.8148  134.1920 C   0  0  0  0  0  0  0  0  0  0  0  0
  129.2319  144.9473  133.2953 C   0  0  1  0  0  0  0  0  0  0  0  0
  130.3973  145.3885  132.4912 C   0  0  0  0  0  0  0  0  0  0  0  0
  131.3240  146.0348  132.8938 O   0  0  0  0  0  0  0  0  0  0  0  0
  128.2297  144.3222  132.3729 C   0  0  2  0  0  0  0  0  0  0  0  0
  126.9907  143.8313  133.1087 C   0  0  0  0  0  0  0  0  0  0  0  0
  126.5588  144.7584  134.2058 C   0  0  0  0  0  0  0  0  0  0  0  0
  127.1178  146.1331  133.9203 C   0  0  2  0  0  0  0  0  0  0  0  0
  128.6103  146.0519  134.0841 C   0  0  2  0  0  0  0  0  0  0  0  0
  129.2571  147.3967  133.8768 C   0  0  0  0  0  0  0  0  0  0  0  0
  128.3128  148.4942  133.5775 C   0  0  0  0  0  0  0  0  0  0  0  0
  127.0689  148.5264  134.4109 C   0  0  2  0  0  0  0  0  0  0  0  0
  126.0125  149.2656  133.6036 C   0  0  0  0  0  0  0  0  0  0  0  0
  127.2528  149.2802  135.7074 C   0  0  2  0  0  0  0  0  0  0  0  0
  126.4293  148.4789  136.7329 C   0  0  0  0  0  0  0  0  0  0  0  0
  126.7627  147.0584  136.2348 C   0  0  0  0  0  0  0  0  0  0  0  0
  126.5239  147.1982  134.7812 C   0  0  2  0  0  0  0  0  0  0  0  0
  125.1174  147.1536  134.6017 O   0  0  0  0  0  0  0  0  0  0  0  0
  126.7777  150.6736  135.6687 C   0  0  0  0  0  0  0  0  0  0  0  0
  127.4874  151.7723  135.3833 C   0  0  0  0  0  0  0  0  0  0  0  0
  126.6452  152.9408  135.4554 C   0  0  0  0  0  0  0  0  0  0  0  0
  126.9217  154.1631  135.2585 O   0  0  0  0  0  0  0  0  0  0  0  0
  125.3790  152.5177  135.7989 O   0  0  0  0  0  0  0  0  0  0  0  0
  125.3926  151.1301  135.9261 C   0  0  0  0  0  0  0  0  0  0  0  0
  128.7640  143.1844  131.5562 C   0  0  0  0  0  0  0  0  0  0  0  0
  131.2100  139.4623  130.6467 C   0  0  1  0  0  0  0  0  0  0  0  0
  131.0232  140.1516  129.4505 O   0  0  0  0  0  0  0  0  0  0  0  0
  1  2  1  0
  3  2  1  6
  3  4  1  0
  4  5  1  1
  4  6  1  0
  6  7  1  6
  6  8  1  0
  8  9  1  0
  9 10  1  6
 11 10  1  6
 11 12  1  0
 12 13  1  0
 13 14  1  0
 14 15  1  6
 15 16  2  0
 14 17  1  0
 17 18  1  1
 18 19  1  0
 20 19  1  1
 20 21  1  0
 21 22  1  6
 22 23  1  0
 23 24  1  0
 24 25  1  6
 24 26  1  0
 26 27  1  0
 27 28  1  0
 28 29  1  0
 29 30  1  1
 26 31  1  6
 31 32  2  0
 32 33  1  0
 33 34  2  0
 33 35  1  0
 35 36  1  0
 17 37  1  0
  9 38  1  0
 38 39  1  6
 38  3  1  0
 37 11  1  0
 21 14  1  0
 29 24  1  0
 36 31  1  0
 29 20  1  0
M  END
$$$$
