
     RDKit          3D

 39 44  0  0  0  0  0  0  0  0999 V2000
  166.7526  149.6128  108.4744 C   0  0  0  0  0  0  0  0  0  0  0  0
  166.7884  148.3185  108.9750 O   0  0  0  0  0  0  0  0  0  0  0  0
  167.8727  148.1579  109.8022 C   0  0  2  0  0  0  0  0  0  0  0  0
  169.1064  147.6794  109.0258 C   0  0  1  0  0  0  0  0  0  0  0  0
  169.4971  148.6774  108.1442 O   0  0  0  0  0  0  0  0  0  0  0  0
  170.1649  147.3655  110.0588 C   0  0  2  0  0  0  0  0  0  0  0  0
  170.5288  145.8917  110.0339 C   0  0  0  0  0  0  0  0  0  0  0  0
  169.8134  147.7949  111.3235 O   0  0  0  0  0  0  0  0  0  0  0  0
  168.7511  147.0080  111.7570 C   0  0  1  0  0  0  0  0  0  0  0  0
  168.3146  147.3443  113.0221 O   0  0  0  0  0  0  0  0  0  0  0  0
  169.0762  146.7550  114.0296 C   0  0  1  0  0  0  0  0  0  0  0  0
  170.2472  147.6752  114.2910 C   0  0  0  0  0  0  0  0  0  0  0  0
  170.9962  147.2327  115.5273 C   0  0  0  0  0  0  0  0  0  0  0  0
  170.0415  147.3988  116.7199 C   0  0  1  0  0  0  0  0  0  0  0  0
  169.4677  148.7595  116.5823 C   0  0  0  0  0  0  0  0  0  0  0  0
  170.0886  149.7856  116.5723 O   0  0  0  0  0  0  0  0  0  0  0  0
  168.9427  146.3994  116.5200 C   0  0  2  0  0  0  0  0  0  0  0  0
  169.4351  144.9638  116.6395 C   0  0  0  0  0  0  0  0  0  0  0  0
  170.4543  144.7858  117.7255 C   0  0  0  0  0  0  0  0  0  0  0  0
  170.2994  145.9142  118.7187 C   0  0  2  0  0  0  0  0  0  0  0  0
  170.7266  147.1797  118.0280 C   0  0  2  0  0  0  0  0  0  0  0  0
  170.6638  148.3603  118.9618 C   0  0  0  0  0  0  0  0  0  0  0  0
  170.2208  148.0362  120.3346 C   0  0  0  0  0  0  0  0  0  0  0  0
  170.8181  146.8014  120.9357 C   0  0  2  0  0  0  0  0  0  0  0  0
  169.8484  146.3123  122.0009 C   0  0  0  0  0  0  0  0  0  0  0  0
  172.1405  147.0638  121.6179 C   0  0  2  0  0  0  0  0  0  0  0  0
  172.9865  145.8170  121.2990 C   0  0  0  0  0  0  0  0  0  0  0  0
  172.5297  145.5964  119.8430 C   0  0  0  0  0  0  0  0  0  0  0  0
  171.0598  145.6907  119.9837 C   0  0  2  0  0  0  0  0  0  0  0  0
  170.6302  144.4510  120.5235 O   0  0  0  0  0  0  0  0  0  0  0  0
  172.0433  147.2381  123.0770 C   0  0  0  0  0  0  0  0  0  0  0  0
  172.4975  148.2618  123.8106 C   0  0  0  0  0  0  0  0  0  0  0  0
  172.1991  148.0452  125.2048 C   0  0  0  0  0  0  0  0  0  0  0  0
  172.4532  148.7647  126.2182 O   0  0  0  0  0  0  0  0  0  0  0  0
  171.5384  146.8393  125.3041 O   0  0  0  0  0  0  0  0  0  0  0  0
  171.3961  146.3032  124.0258 C   0  0  0  0  0  0  0  0  0  0  0  0
  168.2139  146.5316  115.2168 C   0  0  0  0  0  0  0  0  0  0  0  0
  167.5701  147.0861  110.8152 C   0  0  1  0  0  0  0  0  0  0  0  0
  166.3969  147.4230  111.4867 O   0  0  0  0  0  0  0  0  0  0  0  0
  1  2  1  0
  3  2  1  6
  3  4  1  0
  4  5  1  6
  4  6  1  0
  6  7  1  1
  6  8  1  0
  8  9  1  0
  9 10  1  1
 11 10  1  6
 11 12  1  0
 12 13  1  0
 13 14  1  0
 14 15  1  1
 15 16  2  0
 14 17  1  0
 17 18  1  6
 18 19  1  0
 20 19  1  6
 20 21  1  0
 21 22  1  1
 22 23  1  0
 23 24  1  0
 24 25  1  1
 24 26  1  0
 26 27  1  0
 27 28  1  0
 28 29  1  0
 29 30  1  1
 26 31  1  1
 31 32  2  0
 32 33  1  0
 33 34  2  0
 33 35  1  0
 35 36  1  0
 17 37  1  0
  9 38  1  0
 38 39  1  1
 38  3  1  0
 37 11  1  0
 21 14  1  0
 29 24  1  0
 36 31  1  0
 29 20  1  0
M  END
$$$$
