
     RDKit          3D

 39 44  0  0  0  0  0  0  0  0999 V2000
  172.3070  166.0151  117.2629 C   0  0  0  0  0  0  0  0  0  0  0  0
  173.1029  165.0655  116.6368 O   0  0  0  0  0  0  0  0  0  0  0  0
  173.1855  163.9313  117.4066 C   0  0  2  0  0  0  0  0  0  0  0  0
  174.3378  163.0260  116.9523 C   0  0  1  0  0  0  0  0  0  0  0  0
  175.5400  163.6801  117.1819 O   0  0  0  0  0  0  0  0  0  0  0  0
  174.2102  161.7440  117.7436 C   0  0  2  0  0  0  0  0  0  0  0  0
  173.9401  160.5640  116.8272 C   0  0  0  0  0  0  0  0  0  0  0  0
  173.2788  161.8398  118.7590 O   0  0  0  0  0  0  0  0  0  0  0  0
  172.0215  161.9376  118.1716 C   0  0  1  0  0  0  0  0  0  0  0  0
  171.0022  162.0336  119.0967 O   0  0  0  0  0  0  0  0  0  0  0  0
  170.6390  160.7978  119.6290 C   0  0  1  0  0  0  0  0  0  0  0  0
  171.3253  160.6781  120.9710 C   0  0  0  0  0  0  0  0  0  0  0  0
  170.8029  159.4743  121.7216 C   0  0  0  0  0  0  0  0  0  0  0  0
  169.3175  159.7337  122.0175 C   0  0  1  0  0  0  0  0  0  0  0  0
  169.2578  161.1063  122.5759 C   0  0  0  0  0  0  0  0  0  0  0  0
  168.2653  161.7649  122.7157 O   0  0  0  0  0  0  0  0  0  0  0  0
  168.6191  159.7313  120.6915 C   0  0  2  0  0  0  0  0  0  0  0  0
  168.6294  158.3590  120.0324 C   0  0  0  0  0  0  0  0  0  0  0  0
  168.4323  157.2405  121.0121 C   0  0  0  0  0  0  0  0  0  0  0  0
  167.7508  157.7943  122.2421 C   0  0  2  0  0  0  0  0  0  0  0  0
  168.7334  158.7037  122.9266 C   0  0  2  0  0  0  0  0  0  0  0  0
  168.1632  159.2619  124.2045 C   0  0  0  0  0  0  0  0  0  0  0  0
  166.7950  158.7998  124.5215 C   0  0  0  0  0  0  0  0  0  0  0  0
  166.5382  157.3390  124.3141 C   0  0  2  0  0  0  0  0  0  0  0  0
  165.0421  157.1785  124.0909 C   0  0  0  0  0  0  0  0  0  0  0  0
  166.9052  156.5039  125.5187 C   0  0  2  0  0  0  0  0  0  0  0  0
  167.5004  155.2155  124.9206 C   0  0  0  0  0  0  0  0  0  0  0  0
  168.2765  155.8452  123.7465 C   0  0  0  0  0  0  0  0  0  0  0  0
  167.2466  156.7321  123.1617 C   0  0  2  0  0  0  0  0  0  0  0  0
  166.3804  155.8966  122.4104 O   0  0  0  0  0  0  0  0  0  0  0  0
  165.7665  156.1671  126.3897 C   0  0  0  0  0  0  0  0  0  0  0  0
  165.7621  156.0556  127.7239 C   0  0  0  0  0  0  0  0  0  0  0  0
  164.4417  155.7099  128.1895 C   0  0  0  0  0  0  0  0  0  0  0  0
  164.0141  155.5130  129.3675 O   0  0  0  0  0  0  0  0  0  0  0  0
  163.6253  155.6115  127.0831 O   0  0  0  0  0  0  0  0  0  0  0  0
  164.3788  155.9001  125.9469 C   0  0  0  0  0  0  0  0  0  0  0  0
  169.1587  160.7225  119.7049 C   0  0  0  0  0  0  0  0  0  0  0  0
  171.9250  163.1252  117.2398 C   0  0  1  0  0  0  0  0  0  0  0  0
  170.8327  163.9335  117.5467 O   0  0  0  0  0  0  0  0  0  0  0  0
  1  2  1  0
  3  2  1  6
  3  4  1  0
  4  5  1  1
  4  6  1  0
  6  7  1  6
  6  8  1  0
  8  9  1  0
  9 10  1  1
 11 10  1  1
 11 12  1  0
 12 13  1  0
 13 14  1  0
 14 15  1  1
 15 16  2  0
 14 17  1  0
 17 18  1  6
 18 19  1  0
 20 19  1  6
 20 21  1  0
 21 22  1  1
 22 23  1  0
 23 24  1  0
 24 25  1  6
 24 26  1  0
 26 27  1  0
 27 28  1  0
 28 29  1  0
 29 30  1  6
 26 31  1  6
 31 32  2  0
 32 33  1  0
 33 34  2  0
 33 35  1  0
 35 36  1  0
 17 37  1  0
  9 38  1  0
 38 39  1  1
 38  3  1  0
 37 11  1  0
 21 14  1  0
 29 24  1  0
 36 31  1  0
 29 20  1  0
M  END
$$$$
