
     RDKit          3D

 58 67  0  0  0  0  0  0  0  0999 V2000
  139.7699  159.5733  157.1721 C   0  0  0  0  0  0  0  0  0  0  0  0
  139.0520  158.8362  158.2564 C   0  0  0  0  0  0  0  0  0  0  0  0
  139.5165  158.6123  159.5356 C   0  0  0  0  0  0  0  0  0  0  0  0
  138.5555  157.9116  160.1618 N   0  0  0  0  0  0  0  0  0  0  0  0
  137.5177  157.6818  159.3569 C   0  0  0  0  0  0  0  0  0  0  0  0
  136.3313  157.0140  159.5871 C   0  0  0  0  0  0  0  0  0  0  0  0
  136.0809  156.4484  160.8227 O   0  0  0  0  0  0  0  0  0  0  0  0
  135.4216  156.9253  158.5813 C   0  0  0  0  0  0  0  0  0  0  0  0
  135.6946  157.5040  157.3396 C   0  0  0  0  0  0  0  0  0  0  0  0
  134.9063  157.5433  156.1664 N   0  0  0  0  0  0  0  0  0  0  0  0
  135.8481  157.7346  155.0587 C   0  0  0  0  0  0  0  0  0  0  0  0
  136.8642  158.6619  155.7050 C   0  0  1  0  0  0  0  0  0  0  0  0
  136.2941  160.0575  155.6344 C   0  0  0  0  0  0  0  0  0  0  0  0
  134.6193  159.9727  155.0366 Cl  0  0  0  0  0  0  0  0  0  0  0  0
  136.8933  158.1716  157.1250 C   0  0  0  0  0  0  0  0  0  0  0  0
  137.8177  158.2642  158.1396 C   0  0  0  0  0  0  0  0  0  0  0  0
  133.5003  157.4233  156.0364 C   0  0  0  0  0  0  0  0  0  0  0  0
  132.9867  156.2848  156.1510 O   0  0  0  0  0  0  0  0  0  0  0  0
  132.6403  158.5649  155.7773 C   0  0  0  0  0  0  0  0  0  0  0  0
  131.7004  158.6179  154.7445 C   0  0  0  0  0  0  0  0  0  0  0  0
  131.0422  159.8526  154.7772 C   0  0  0  0  0  0  0  0  0  0  0  0
  130.0574  160.4201  154.0215 C   0  0  0  0  0  0  0  0  0  0  0  0
  129.5661  161.6976  154.2732 C   0  0  0  0  0  0  0  0  0  0  0  0
  128.5534  162.2349  153.4155 N   0  0  0  0  0  0  0  0  0  0  0  0
  128.7797  163.2025  152.4497 C   0  0  0  0  0  0  0  0  0  0  0  0
  129.8867  163.8118  152.3266 O   0  0  0  0  0  0  0  0  0  0  0  0
  127.7911  163.6110  151.4894 N   0  0  0  0  0  0  0  0  0  0  0  0
  127.9291  164.9004  150.9092 C   0  0  0  0  0  0  0  0  0  0  0  0
  127.0571  165.9299  151.2520 C   0  0  0  0  0  0  0  0  0  0  0  0
  127.2988  167.1761  150.7245 C   0  0  0  0  0  0  0  0  0  0  0  0
  128.3607  167.4144  149.8872 C   0  0  0  0  0  0  0  0  0  0  0  0
  128.8090  168.5206  149.2862 N   0  0  0  0  0  0  0  0  0  0  0  0
  129.9369  168.2659  148.5625 C   0  0  0  0  0  0  0  0  0  0  0  0
  130.1996  166.9437  148.7175 C   0  0  0  0  0  0  0  0  0  0  0  0
  129.2372  166.3919  149.5356 C   0  0  0  0  0  0  0  0  0  0  0  0
  128.9929  165.1464  150.0636 C   0  0  0  0  0  0  0  0  0  0  0  0
  130.6386  169.3270  147.8588 C   0  0  0  0  0  0  0  0  0  0  0  0
  131.4579  170.0080  148.5619 O   0  0  0  0  0  0  0  0  0  0  0  0
  130.4978  169.6566  146.5342 N   0  0  0  0  0  0  0  0  0  0  0  0
  131.5044  169.8433  145.4322 C   0  0  0  0  0  0  0  0  0  0  0  0
  130.9350  171.2986  145.1455 C   0  0  1  0  0  0  0  0  0  0  0  0
  131.9145  172.1735  144.6684 C   0  0  0  0  0  0  0  0  0  0  0  0
  133.5343  171.4825  144.5578 Cl  0  0  0  0  0  0  0  0  0  0  0  0
  129.6120  170.8922  144.7877 C   0  0  0  0  0  0  0  0  0  0  0  0
  128.6277  171.1996  143.8632 C   0  0  0  0  0  0  0  0  0  0  0  0
  128.6323  171.9587  142.7249 C   0  0  0  0  0  0  0  0  0  0  0  0
  129.7390  172.6880  142.0868 C   0  0  0  0  0  0  0  0  0  0  0  0
  127.3316  171.8403  142.1899 C   0  0  0  0  0  0  0  0  0  0  0  0
  126.6206  171.0507  142.9789 N   0  0  0  0  0  0  0  0  0  0  0  0
  127.3767  170.6206  144.0354 C   0  0  0  0  0  0  0  0  0  0  0  0
  127.0420  169.7555  145.0558 C   0  0  0  0  0  0  0  0  0  0  0  0
  125.7860  169.2262  145.1623 O   0  0  0  0  0  0  0  0  0  0  0  0
  128.0270  169.4480  145.9614 C   0  0  0  0  0  0  0  0  0  0  0  0
  129.2747  169.9895  145.8389 C   0  0  0  0  0  0  0  0  0  0  0  0
  130.1239  162.3629  155.3251 C   0  0  0  0  0  0  0  0  0  0  0  0
  131.1410  161.7751  156.1043 C   0  0  0  0  0  0  0  0  0  0  0  0
  131.6169  160.5181  155.8478 C   0  0  0  0  0  0  0  0  0  0  0  0
  132.5453  159.7390  156.4097 N   0  0  0  0  0  0  0  0  0  0  0  0
  1  2  1  0
  2  3  2  0
  3  4  1  0
  4  5  1  0
  5  6  2  0
  6  7  1  0
  6  8  1  0
  8  9  2  0
  9 10  1  0
 10 11  1  0
 11 12  1  0
 12 13  1  1
 13 14  1  0
 12 15  1  0
 15 16  2  0
 10 17  1  0
 17 18  2  0
 17 19  1  0
 19 20  2  0
 20 21  1  0
 21 22  2  0
 22 23  1  0
 23 24  1  0
 24 25  1  0
 25 26  2  0
 25 27  1  0
 27 28  1  0
 28 29  2  0
 29 30  1  0
 30 31  2  0
 31 32  1  0
 32 33  1  0
 33 34  2  0
 34 35  1  0
 35 36  2  0
 33 37  1  0
 37 38  2  0
 37 39  1  0
 39 40  1  0
 40 41  1  0
 41 42  1  6
 42 43  1  0
 41 44  1  0
 44 45  2  0
 45 46  1  0
 46 47  1  0
 46 48  2  0
 48 49  1  0
 49 50  1  0
 50 51  2  0
 51 52  1  0
 51 53  1  0
 53 54  2  0
 23 55  2  0
 55 56  1  0
 56 57  2  0
 57 58  1  0
 16  2  1  0
 58 19  1  0
 16  5  1  0
 57 21  1  0
 15  9  1  0
 36 28  1  0
 54 39  1  0
 35 31  1  0
 54 44  1  0
 50 45  1  0
M  END
$$$$
