
     RDKit          3D

 58 67  0  0  0  0  0  0  0  0999 V2000
  176.0116  155.7219  135.6717 C   0  0  0  0  0  0  0  0  0  0  0  0
  176.5516  154.4622  135.0749 C   0  0  0  0  0  0  0  0  0  0  0  0
  177.8829  154.1226  134.9544 C   0  0  0  0  0  0  0  0  0  0  0  0
  177.9059  152.9169  134.3608 N   0  0  0  0  0  0  0  0  0  0  0  0
  176.6736  152.4785  134.1014 C   0  0  0  0  0  0  0  0  0  0  0  0
  176.2411  151.3069  133.5126 C   0  0  0  0  0  0  0  0  0  0  0  0
  177.1572  150.3672  133.0800 O   0  0  0  0  0  0  0  0  0  0  0  0
  174.9058  151.0982  133.3686 C   0  0  0  0  0  0  0  0  0  0  0  0
  173.9965  152.0611  133.8126 C   0  0  0  0  0  0  0  0  0  0  0  0
  172.5830  152.0569  133.7743 N   0  0  0  0  0  0  0  0  0  0  0  0
  172.1783  153.4658  133.8160 C   0  0  0  0  0  0  0  0  0  0  0  0
  173.2285  154.0368  134.7547 C   0  0  1  0  0  0  0  0  0  0  0  0
  172.7760  153.7290  136.1611 C   0  0  0  0  0  0  0  0  0  0  0  0
  171.1471  154.4031  136.4092 Cl  0  0  0  0  0  0  0  0  0  0  0  0
  174.4489  153.2343  134.4021 C   0  0  0  0  0  0  0  0  0  0  0  0
  175.7994  153.4507  134.5502 C   0  0  0  0  0  0  0  0  0  0  0  0
  171.6995  150.9512  133.7054 C   0  0  0  0  0  0  0  0  0  0  0  0
  170.6309  151.0012  134.3602 O   0  0  0  0  0  0  0  0  0  0  0  0
  171.9867  149.7711  132.9086 C   0  0  0  0  0  0  0  0  0  0  0  0
  171.7847  149.6911  131.5281 C   0  0  0  0  0  0  0  0  0  0  0  0
  172.1638  148.4224  131.0750 C   0  0  0  0  0  0  0  0  0  0  0  0
  172.1772  147.8200  129.8503 C   0  0  0  0  0  0  0  0  0  0  0  0
  172.6169  146.5125  129.6665 C   0  0  0  0  0  0  0  0  0  0  0  0
  172.5710  145.9411  128.3545 N   0  0  0  0  0  0  0  0  0  0  0  0
  171.4173  145.8126  127.5979 C   0  0  0  0  0  0  0  0  0  0  0  0
  171.0475  146.6793  126.7469 O   0  0  0  0  0  0  0  0  0  0  0  0
  170.5267  144.6883  127.6944 N   0  0  0  0  0  0  0  0  0  0  0  0
  169.7032  144.4016  126.5728 C   0  0  0  0  0  0  0  0  0  0  0  0
  169.9650  143.2999  125.7633 C   0  0  0  0  0  0  0  0  0  0  0  0
  169.0791  143.0260  124.7484 C   0  0  0  0  0  0  0  0  0  0  0  0
  167.9681  143.8023  124.5279 C   0  0  0  0  0  0  0  0  0  0  0  0
  166.9686  143.7220  123.6445 N   0  0  0  0  0  0  0  0  0  0  0  0
  166.0604  144.7217  123.8355 C   0  0  0  0  0  0  0  0  0  0  0  0
  166.5163  145.4572  124.8807 C   0  0  0  0  0  0  0  0  0  0  0  0
  167.6981  144.9077  125.3294 C   0  0  0  0  0  0  0  0  0  0  0  0
  168.5859  145.1800  126.3431 C   0  0  0  0  0  0  0  0  0  0  0  0
  164.8563  144.8132  123.0260 C   0  0  0  0  0  0  0  0  0  0  0  0
  164.6470  143.8337  122.2348 O   0  0  0  0  0  0  0  0  0  0  0  0
  163.9461  145.8402  123.0345 N   0  0  0  0  0  0  0  0  0  0  0  0
  162.7150  146.0991  122.2100 C   0  0  0  0  0  0  0  0  0  0  0  0
  163.2841  147.5219  121.7898 C   0  0  1  0  0  0  0  0  0  0  0  0
  162.8574  147.9162  120.5189 C   0  0  0  0  0  0  0  0  0  0  0  0
  161.7249  146.8089  119.7412 Cl  0  0  0  0  0  0  0  0  0  0  0  0
  163.3410  148.0741  123.1071 C   0  0  0  0  0  0  0  0  0  0  0  0
  163.0828  149.2659  123.7635 C   0  0  0  0  0  0  0  0  0  0  0  0
  162.4426  150.4129  123.3807 C   0  0  0  0  0  0  0  0  0  0  0  0
  161.7746  150.7366  122.1108 C   0  0  0  0  0  0  0  0  0  0  0  0
  162.4597  151.2492  124.5177 C   0  0  0  0  0  0  0  0  0  0  0  0
  163.0742  150.6119  125.5015 N   0  0  0  0  0  0  0  0  0  0  0  0
  163.4815  149.3719  125.0900 C   0  0  0  0  0  0  0  0  0  0  0  0
  164.1104  148.3754  125.8064 C   0  0  0  0  0  0  0  0  0  0  0  0
  164.4767  148.5542  127.1114 O   0  0  0  0  0  0  0  0  0  0  0  0
  164.3526  147.1937  125.1510 C   0  0  0  0  0  0  0  0  0  0  0  0
  163.9813  147.0361  123.8462 C   0  0  0  0  0  0  0  0  0  0  0  0
  173.0390  145.8544  130.7841 C   0  0  0  0  0  0  0  0  0  0  0  0
  173.0242  146.4781  132.0481 C   0  0  0  0  0  0  0  0  0  0  0  0
  172.5896  147.7645  132.2176 C   0  0  0  0  0  0  0  0  0  0  0  0
  172.4735  148.5795  133.2697 N   0  0  0  0  0  0  0  0  0  0  0  0
  1  2  1  0
  2  3  2  0
  3  4  1  0
  4  5  1  0
  5  6  2  0
  6  7  1  0
  6  8  1  0
  8  9  2  0
  9 10  1  0
 10 11  1  0
 11 12  1  0
 12 13  1  1
 13 14  1  0
 12 15  1  0
 15 16  2  0
 10 17  1  0
 17 18  2  0
 17 19  1  0
 19 20  2  0
 20 21  1  0
 21 22  2  0
 22 23  1  0
 23 24  1  0
 24 25  1  0
 25 26  2  0
 25 27  1  0
 27 28  1  0
 28 29  2  0
 29 30  1  0
 30 31  2  0
 31 32  1  0
 32 33  1  0
 33 34  2  0
 34 35  1  0
 35 36  2  0
 33 37  1  0
 37 38  2  0
 37 39  1  0
 39 40  1  0
 40 41  1  0
 41 42  1  6
 42 43  1  0
 41 44  1  0
 44 45  2  0
 45 46  1  0
 46 47  1  0
 46 48  2  0
 48 49  1  0
 49 50  1  0
 50 51  2  0
 51 52  1  0
 51 53  1  0
 53 54  2  0
 23 55  2  0
 55 56  1  0
 56 57  2  0
 57 58  1  0
 16  2  1  0
 58 19  1  0
 16  5  1  0
 57 21  1  0
 15  9  1  0
 36 28  1  0
 54 39  1  0
 35 31  1  0
 54 44  1  0
 50 45  1  0
M  END
$$$$
