
     RDKit          3D

 58 67  0  0  0  0  0  0  0  0999 V2000
  126.7763  132.6285  136.6618 C   0  0  0  0  0  0  0  0  0  0  0  0
  125.7000  132.3039  135.6766 C   0  0  0  0  0  0  0  0  0  0  0  0
  124.5899  131.5197  135.9109 C   0  0  0  0  0  0  0  0  0  0  0  0
  123.9026  131.4952  134.7560 N   0  0  0  0  0  0  0  0  0  0  0  0
  124.5110  132.2141  133.8122 C   0  0  0  0  0  0  0  0  0  0  0  0
  124.1569  132.4600  132.5005 C   0  0  0  0  0  0  0  0  0  0  0  0
  123.0002  131.9127  131.9788 O   0  0  0  0  0  0  0  0  0  0  0  0
  124.9630  133.2456  131.7387 C   0  0  0  0  0  0  0  0  0  0  0  0
  126.1279  133.7888  132.2856 C   0  0  0  0  0  0  0  0  0  0  0  0
  127.1001  134.6276  131.6933 N   0  0  0  0  0  0  0  0  0  0  0  0
  128.3289  134.4226  132.4668 C   0  0  0  0  0  0  0  0  0  0  0  0
  127.7606  134.2540  133.8663 C   0  0  1  0  0  0  0  0  0  0  0  0
  127.4970  135.6392  134.4043 C   0  0  0  0  0  0  0  0  0  0  0  0
  125.9233  135.6508  135.2365 Cl  0  0  0  0  0  0  0  0  0  0  0  0
  126.4694  133.5308  133.6067 C   0  0  0  0  0  0  0  0  0  0  0  0
  125.6571  132.7361  134.3822 C   0  0  0  0  0  0  0  0  0  0  0  0
  126.9650  135.4976  130.5829 C   0  0  0  0  0  0  0  0  0  0  0  0
  126.4361  135.0506  129.5372 O   0  0  0  0  0  0  0  0  0  0  0  0
  127.4142  136.8786  130.6143 C   0  0  0  0  0  0  0  0  0  0  0  0
  128.7568  137.2638  130.6559 C   0  0  0  0  0  0  0  0  0  0  0  0
  128.8398  138.6608  130.6749 C   0  0  0  0  0  0  0  0  0  0  0  0
  129.8776  139.5466  130.7121 C   0  0  0  0  0  0  0  0  0  0  0  0
  129.6827  140.9245  130.7217 C   0  0  0  0  0  0  0  0  0  0  0  0
  130.8227  141.7878  130.7926 N   0  0  0  0  0  0  0  0  0  0  0  0
  131.4549  142.3398  129.6901 C   0  0  0  0  0  0  0  0  0  0  0  0
  130.8464  142.6194  128.6113 O   0  0  0  0  0  0  0  0  0  0  0  0
  132.8569  142.6555  129.6553 N   0  0  0  0  0  0  0  0  0  0  0  0
  133.3290  143.4408  128.5695 C   0  0  0  0  0  0  0  0  0  0  0  0
  132.7575  144.6783  128.2875 C   0  0  0  0  0  0  0  0  0  0  0  0
  133.3184  145.4282  127.2811 C   0  0  0  0  0  0  0  0  0  0  0  0
  134.4064  144.9865  126.5692 C   0  0  0  0  0  0  0  0  0  0  0  0
  135.1298  145.5350  125.5886 N   0  0  0  0  0  0  0  0  0  0  0  0
  136.1519  144.7140  125.2116 C   0  0  0  0  0  0  0  0  0  0  0  0
  136.0581  143.6058  125.9892 C   0  0  0  0  0  0  0  0  0  0  0  0
  134.9839  143.7497  126.8409 C   0  0  0  0  0  0  0  0  0  0  0  0
  134.4208  143.0012  127.8471 C   0  0  0  0  0  0  0  0  0  0  0  0
  137.1081  145.1169  124.1935 C   0  0  0  0  0  0  0  0  0  0  0  0
  137.7091  146.2226  124.4068 O   0  0  0  0  0  0  0  0  0  0  0  0
  137.4124  144.4295  123.0453 N   0  0  0  0  0  0  0  0  0  0  0  0
  138.6309  144.4351  122.1634 C   0  0  0  0  0  0  0  0  0  0  0  0
  137.7276  144.7762  120.9015 C   0  0  1  0  0  0  0  0  0  0  0  0
  138.4068  145.5357  119.9452 C   0  0  0  0  0  0  0  0  0  0  0  0
  139.8664  144.7820  119.3010 Cl  0  0  0  0  0  0  0  0  0  0  0  0
  136.9307  143.5901  120.9418 C   0  0  0  0  0  0  0  0  0  0  0  0
  136.3788  142.6600  120.0768 C   0  0  0  0  0  0  0  0  0  0  0  0
  136.5650  142.4114  118.7443 C   0  0  0  0  0  0  0  0  0  0  0  0
  137.4708  143.0619  117.7851 C   0  0  0  0  0  0  0  0  0  0  0  0
  135.7507  141.2957  118.4536 C   0  0  0  0  0  0  0  0  0  0  0  0
  135.1337  140.9225  119.5633 N   0  0  0  0  0  0  0  0  0  0  0  0
  135.4883  141.7345  120.6063 C   0  0  0  0  0  0  0  0  0  0  0  0
  135.1167  141.6674  121.9326 C   0  0  0  0  0  0  0  0  0  0  0  0
  134.2304  140.7279  122.3809 O   0  0  0  0  0  0  0  0  0  0  0  0
  135.6770  142.5864  122.7849 C   0  0  0  0  0  0  0  0  0  0  0  0
  136.5583  143.5186  122.3166 C   0  0  0  0  0  0  0  0  0  0  0  0
  128.3878  141.3516  130.6918 C   0  0  0  0  0  0  0  0  0  0  0  0
  127.3173  140.4352  130.6536 C   0  0  0  0  0  0  0  0  0  0  0  0
  127.5203  139.0820  130.6446 C   0  0  0  0  0  0  0  0  0  0  0  0
  126.7140  138.0175  130.6094 N   0  0  0  0  0  0  0  0  0  0  0  0
  1  2  1  0
  2  3  2  0
  3  4  1  0
  4  5  1  0
  5  6  2  0
  6  7  1  0
  6  8  1  0
  8  9  2  0
  9 10  1  0
 10 11  1  0
 11 12  1  0
 12 13  1  6
 13 14  1  0
 12 15  1  0
 15 16  2  0
 10 17  1  0
 17 18  2  0
 17 19  1  0
 19 20  2  0
 20 21  1  0
 21 22  2  0
 22 23  1  0
 23 24  1  0
 24 25  1  0
 25 26  2  0
 25 27  1  0
 27 28  1  0
 28 29  2  0
 29 30  1  0
 30 31  2  0
 31 32  1  0
 32 33  1  0
 33 34  2  0
 34 35  1  0
 35 36  2  0
 33 37  1  0
 37 38  2  0
 37 39  1  0
 39 40  1  0
 40 41  1  0
 41 42  1  6
 42 43  1  0
 41 44  1  0
 44 45  2  0
 45 46  1  0
 46 47  1  0
 46 48  2  0
 48 49  1  0
 49 50  1  0
 50 51  2  0
 51 52  1  0
 51 53  1  0
 53 54  2  0
 23 55  2  0
 55 56  1  0
 56 57  2  0
 57 58  1  0
 16  2  1  0
 58 19  1  0
 16  5  1  0
 57 21  1  0
 15  9  1  0
 36 28  1  0
 54 39  1  0
 35 31  1  0
 54 44  1  0
 50 45  1  0
M  END
$$$$
