
     RDKit          3D

 58 67  0  0  0  0  0  0  0  0999 V2000
  176.4235  157.5122  138.3484 C   0  0  0  0  0  0  0  0  0  0  0  0
  175.8215  156.1695  138.0849 C   0  0  0  0  0  0  0  0  0  0  0  0
  175.9096  155.0620  138.9021 C   0  0  0  0  0  0  0  0  0  0  0  0
  175.2320  154.0844  138.2762 N   0  0  0  0  0  0  0  0  0  0  0  0
  174.7245  154.5082  137.1183 C   0  0  0  0  0  0  0  0  0  0  0  0
  173.9683  153.8462  136.1717 C   0  0  0  0  0  0  0  0  0  0  0  0
  173.6301  152.5191  136.3565 O   0  0  0  0  0  0  0  0  0  0  0  0
  173.5661  154.5213  135.0628 C   0  0  0  0  0  0  0  0  0  0  0  0
  173.9190  155.8624  134.8953 C   0  0  0  0  0  0  0  0  0  0  0  0
  173.6121  156.7543  133.8418 N   0  0  0  0  0  0  0  0  0  0  0  0
  174.6567  157.7831  133.8726 C   0  0  0  0  0  0  0  0  0  0  0  0
  174.8780  157.9205  135.3700 C   0  0  1  0  0  0  0  0  0  0  0  0
  173.7892  158.8240  135.8950 C   0  0  0  0  0  0  0  0  0  0  0  0
  172.3065  158.5616  134.9451 Cl  0  0  0  0  0  0  0  0  0  0  0  0
  174.6806  156.5129  135.8572 C   0  0  0  0  0  0  0  0  0  0  0  0
  175.0906  155.8342  136.9815 C   0  0  0  0  0  0  0  0  0  0  0  0
  172.5362  156.7047  132.9210 C   0  0  0  0  0  0  0  0  0  0  0  0
  172.3519  157.6900  132.1670 O   0  0  0  0  0  0  0  0  0  0  0  0
  171.6467  155.5607  132.8208 C   0  0  0  0  0  0  0  0  0  0  0  0
  171.7846  154.5430  131.8732 C   0  0  0  0  0  0  0  0  0  0  0  0
  170.7686  153.5977  132.0543 C   0  0  0  0  0  0  0  0  0  0  0  0
  170.4377  152.4322  131.4257 C   0  0  0  0  0  0  0  0  0  0  0  0
  169.3488  151.6576  131.8145 C   0  0  0  0  0  0  0  0  0  0  0  0
  169.0487  150.4631  131.0845 N   0  0  0  0  0  0  0  0  0  0  0  0
  169.9707  149.7565  130.3289 C   0  0  0  0  0  0  0  0  0  0  0  0
  171.0100  150.2886  129.8301 O   0  0  0  0  0  0  0  0  0  0  0  0
  169.8487  148.3543  130.0369 N   0  0  0  0  0  0  0  0  0  0  0  0
  170.5516  147.8522  128.9091 C   0  0  0  0  0  0  0  0  0  0  0  0
  171.4857  146.8302  129.0523 C   0  0  0  0  0  0  0  0  0  0  0  0
  172.0652  146.3277  127.9116 C   0  0  0  0  0  0  0  0  0  0  0  0
  171.7437  146.8058  126.6651 C   0  0  0  0  0  0  0  0  0  0  0  0
  172.1409  146.4662  125.4352 N   0  0  0  0  0  0  0  0  0  0  0  0
  171.5108  147.2191  124.4882 C   0  0  0  0  0  0  0  0  0  0  0  0
  170.6885  148.0654  125.1581 C   0  0  0  0  0  0  0  0  0  0  0  0
  170.8132  147.8293  126.5104 C   0  0  0  0  0  0  0  0  0  0  0  0
  170.2357  148.3307  127.6527 C   0  0  0  0  0  0  0  0  0  0  0  0
  171.7426  146.9980  123.0702 C   0  0  0  0  0  0  0  0  0  0  0  0
  172.8239  147.4906  122.6039 O   0  0  0  0  0  0  0  0  0  0  0  0
  170.9167  146.3240  122.2059 N   0  0  0  0  0  0  0  0  0  0  0  0
  171.1900  145.5856  120.9243 C   0  0  0  0  0  0  0  0  0  0  0  0
  170.1137  146.4781  120.1695 C   0  0  1  0  0  0  0  0  0  0  0  0
  170.4243  146.6665  118.8202 C   0  0  0  0  0  0  0  0  0  0  0  0
  172.0081  146.0601  118.3332 Cl  0  0  0  0  0  0  0  0  0  0  0  0
  168.9864  146.0761  120.9512 C   0  0  0  0  0  0  0  0  0  0  0  0
  167.6502  145.7516  120.7866 C   0  0  0  0  0  0  0  0  0  0  0  0
  166.8897  145.4975  119.6779 C   0  0  0  0  0  0  0  0  0  0  0  0
  167.2801  145.4574  118.2603 C   0  0  0  0  0  0  0  0  0  0  0  0
  165.6066  145.1745  120.1693 C   0  0  0  0  0  0  0  0  0  0  0  0
  165.6326  145.2362  121.4911 N   0  0  0  0  0  0  0  0  0  0  0  0
  166.8795  145.5888  121.9310 C   0  0  0  0  0  0  0  0  0  0  0  0
  167.3473  145.7196  123.2217 C   0  0  0  0  0  0  0  0  0  0  0  0
  166.5264  145.5468  124.3013 O   0  0  0  0  0  0  0  0  0  0  0  0
  168.6755  146.0307  123.3755 C   0  0  0  0  0  0  0  0  0  0  0  0
  169.4782  146.2018  122.2839 C   0  0  0  0  0  0  0  0  0  0  0  0
  168.6195  152.1263  132.8675 C   0  0  0  0  0  0  0  0  0  0  0  0
  168.9628  153.3303  133.5152 C   0  0  0  0  0  0  0  0  0  0  0  0
  170.0357  154.0843  133.1245 C   0  0  0  0  0  0  0  0  0  0  0  0
  170.5746  155.2308  133.5484 N   0  0  0  0  0  0  0  0  0  0  0  0
  1  2  1  0
  2  3  2  0
  3  4  1  0
  4  5  1  0
  5  6  2  0
  6  7  1  0
  6  8  1  0
  8  9  2  0
  9 10  1  0
 10 11  1  0
 11 12  1  0
 12 13  1  1
 13 14  1  0
 12 15  1  0
 15 16  2  0
 10 17  1  0
 17 18  2  0
 17 19  1  0
 19 20  2  0
 20 21  1  0
 21 22  2  0
 22 23  1  0
 23 24  1  0
 24 25  1  0
 25 26  2  0
 25 27  1  0
 27 28  1  0
 28 29  2  0
 29 30  1  0
 30 31  2  0
 31 32  1  0
 32 33  1  0
 33 34  2  0
 34 35  1  0
 35 36  2  0
 33 37  1  0
 37 38  2  0
 37 39  1  0
 39 40  1  0
 40 41  1  0
 41 42  1  6
 42 43  1  0
 41 44  1  0
 44 45  2  0
 45 46  1  0
 46 47  1  0
 46 48  2  0
 48 49  1  0
 49 50  1  0
 50 51  2  0
 51 52  1  0
 51 53  1  0
 53 54  2  0
 23 55  2  0
 55 56  1  0
 56 57  2  0
 57 58  1  0
 16  2  1  0
 58 19  1  0
 16  5  1  0
 57 21  1  0
 15  9  1  0
 36 28  1  0
 54 39  1  0
 35 31  1  0
 54 44  1  0
 50 45  1  0
M  END
$$$$
