
     RDKit          3D

 58 67  0  0  0  0  0  0  0  0999 V2000
  162.2858  160.5346  128.8114 C   0  0  0  0  0  0  0  0  0  0  0  0
  162.1386  159.6784  127.5950 C   0  0  0  0  0  0  0  0  0  0  0  0
  161.2047  159.8393  126.5929 C   0  0  0  0  0  0  0  0  0  0  0  0
  161.4337  158.8517  125.7104 N   0  0  0  0  0  0  0  0  0  0  0  0
  162.4519  158.0815  126.0951 C   0  0  0  0  0  0  0  0  0  0  0  0
  163.0190  156.9746  125.4956 C   0  0  0  0  0  0  0  0  0  0  0  0
  162.5198  156.5012  124.2972 O   0  0  0  0  0  0  0  0  0  0  0  0
  164.0705  156.3647  126.1035 C   0  0  0  0  0  0  0  0  0  0  0  0
  164.5596  156.8593  127.3149 C   0  0  0  0  0  0  0  0  0  0  0  0
  165.6320  156.3990  128.1135 N   0  0  0  0  0  0  0  0  0  0  0  0
  165.3508  156.8744  129.4720 C   0  0  0  0  0  0  0  0  0  0  0  0
  164.7326  158.2313  129.1773 C   0  0  1  0  0  0  0  0  0  0  0  0
  165.8718  159.1912  128.9359 C   0  0  0  0  0  0  0  0  0  0  0  0
  167.3386  158.5645  129.7267 Cl  0  0  0  0  0  0  0  0  0  0  0  0
  163.9769  157.9734  127.9044 C   0  0  0  0  0  0  0  0  0  0  0  0
  162.9122  158.5945  127.2934 C   0  0  0  0  0  0  0  0  0  0  0  0
  166.7606  155.6330  127.7295 C   0  0  0  0  0  0  0  0  0  0  0  0
  167.8685  155.9017  128.2525 O   0  0  0  0  0  0  0  0  0  0  0  0
  166.6789  154.5556  126.7586 C   0  0  0  0  0  0  0  0  0  0  0  0
  166.5749  153.2038  127.0971 C   0  0  0  0  0  0  0  0  0  0  0  0
  166.5145  152.4349  125.9292 C   0  0  0  0  0  0  0  0  0  0  0  0
  166.4089  151.0968  125.6817 C   0  0  0  0  0  0  0  0  0  0  0  0
  166.3660  150.5776  124.3912 C   0  0  0  0  0  0  0  0  0  0  0  0
  166.2857  149.1591  124.2144 N   0  0  0  0  0  0  0  0  0  0  0  0
  165.8308  148.2756  125.1802 C   0  0  0  0  0  0  0  0  0  0  0  0
  165.5303  148.6348  126.3603 O   0  0  0  0  0  0  0  0  0  0  0  0
  165.6487  146.8691  124.9456 N   0  0  0  0  0  0  0  0  0  0  0  0
  165.5766  146.0157  126.0792 C   0  0  0  0  0  0  0  0  0  0  0  0
  164.7773  144.8763  126.0599 C   0  0  0  0  0  0  0  0  0  0  0  0
  164.8208  144.0450  127.1539 C   0  0  0  0  0  0  0  0  0  0  0  0
  165.6211  144.3144  128.2366 C   0  0  0  0  0  0  0  0  0  0  0  0
  165.8514  143.6580  129.3777 N   0  0  0  0  0  0  0  0  0  0  0  0
  166.7661  144.3143  130.1480 C   0  0  0  0  0  0  0  0  0  0  0  0
  167.1176  145.4284  129.4577 C   0  0  0  0  0  0  0  0  0  0  0  0
  166.4221  145.4522  128.2678 C   0  0  0  0  0  0  0  0  0  0  0  0
  166.3763  146.2824  127.1730 C   0  0  0  0  0  0  0  0  0  0  0  0
  167.2168  143.7667  131.4170 C   0  0  0  0  0  0  0  0  0  0  0  0
  168.2610  143.0346  131.3630 O   0  0  0  0  0  0  0  0  0  0  0  0
  166.6285  143.9602  132.6416 N   0  0  0  0  0  0  0  0  0  0  0  0
  166.4527  143.0513  133.8272 C   0  0  0  0  0  0  0  0  0  0  0  0
  164.8844  143.3049  133.8011 C   0  0  1  0  0  0  0  0  0  0  0  0
  164.1556  142.2061  134.2636 C   0  0  0  0  0  0  0  0  0  0  0  0
  164.7320  141.5221  135.7846 Cl  0  0  0  0  0  0  0  0  0  0  0  0
  164.9397  144.7141  134.0349 C   0  0  0  0  0  0  0  0  0  0  0  0
  164.2740  145.6907  134.7567 C   0  0  0  0  0  0  0  0  0  0  0  0
  163.3365  145.6283  135.7513 C   0  0  0  0  0  0  0  0  0  0  0  0
  162.7442  144.4548  136.4114 C   0  0  0  0  0  0  0  0  0  0  0  0
  163.0870  146.9688  136.1161 C   0  0  0  0  0  0  0  0  0  0  0  0
  163.8457  147.7574  135.3717 N   0  0  0  0  0  0  0  0  0  0  0  0
  164.6071  147.0164  134.5090 C   0  0  0  0  0  0  0  0  0  0  0  0
  165.5575  147.4343  133.6014 C   0  0  0  0  0  0  0  0  0  0  0  0
  165.8298  148.7603  133.4094 O   0  0  0  0  0  0  0  0  0  0  0  0
  166.2201  146.4590  132.8982 C   0  0  0  0  0  0  0  0  0  0  0  0
  165.9315  145.1399  133.1027 C   0  0  0  0  0  0  0  0  0  0  0  0
  166.4355  151.4828  123.3734 C   0  0  0  0  0  0  0  0  0  0  0  0
  166.5446  152.8644  123.6310 C   0  0  0  0  0  0  0  0  0  0  0  0
  166.5861  153.3642  124.9041 C   0  0  0  0  0  0  0  0  0  0  0  0
  166.6812  154.5918  125.4222 N   0  0  0  0  0  0  0  0  0  0  0  0
  1  2  1  0
  2  3  2  0
  3  4  1  0
  4  5  1  0
  5  6  2  0
  6  7  1  0
  6  8  1  0
  8  9  2  0
  9 10  1  0
 10 11  1  0
 11 12  1  0
 12 13  1  6
 13 14  1  0
 12 15  1  0
 15 16  2  0
 10 17  1  0
 17 18  2  0
 17 19  1  0
 19 20  2  0
 20 21  1  0
 21 22  2  0
 22 23  1  0
 23 24  1  0
 24 25  1  0
 25 26  2  0
 25 27  1  0
 27 28  1  0
 28 29  2  0
 29 30  1  0
 30 31  2  0
 31 32  1  0
 32 33  1  0
 33 34  2  0
 34 35  1  0
 35 36  2  0
 33 37  1  0
 37 38  2  0
 37 39  1  0
 39 40  1  0
 40 41  1  0
 41 42  1  1
 42 43  1  0
 41 44  1  0
 44 45  2  0
 45 46  1  0
 46 47  1  0
 46 48  2  0
 48 49  1  0
 49 50  1  0
 50 51  2  0
 51 52  1  0
 51 53  1  0
 53 54  2  0
 23 55  2  0
 55 56  1  0
 56 57  2  0
 57 58  1  0
 16  2  1  0
 58 19  1  0
 16  5  1  0
 57 21  1  0
 15  9  1  0
 36 28  1  0
 54 39  1  0
 35 31  1  0
 54 44  1  0
 50 45  1  0
M  END
$$$$
