
     RDKit          3D

 58 67  0  0  0  0  0  0  0  0999 V2000
  137.8389  173.2736  131.8459 C   0  0  0  0  0  0  0  0  0  0  0  0
  138.8582  173.2077  130.7544 C   0  0  0  0  0  0  0  0  0  0  0  0
  138.6718  173.5854  129.4411 C   0  0  0  0  0  0  0  0  0  0  0  0
  139.8402  173.3525  128.8188 N   0  0  0  0  0  0  0  0  0  0  0  0
  140.7477  172.8529  129.6583 C   0  0  0  0  0  0  0  0  0  0  0  0
  142.0594  172.4781  129.4459 C   0  0  0  0  0  0  0  0  0  0  0  0
  142.6208  172.5957  128.1886 O   0  0  0  0  0  0  0  0  0  0  0  0
  142.7821  171.9951  130.4907 C   0  0  0  0  0  0  0  0  0  0  0  0
  142.1954  171.8841  131.7536 C   0  0  0  0  0  0  0  0  0  0  0  0
  142.7478  171.4228  132.9707 N   0  0  0  0  0  0  0  0  0  0  0  0
  141.6098  170.9816  133.7837 C   0  0  0  0  0  0  0  0  0  0  0  0
  140.5656  172.0169  133.3988 C   0  0  1  0  0  0  0  0  0  0  0  0
  140.8443  173.2505  134.2222 C   0  0  0  0  0  0  0  0  0  0  0  0
  142.5689  173.2792  134.6629 Cl  0  0  0  0  0  0  0  0  0  0  0  0
  140.8745  172.2652  131.9495 C   0  0  0  0  0  0  0  0  0  0  0  0
  140.1384  172.7546  130.8953 C   0  0  0  0  0  0  0  0  0  0  0  0
  144.1074  171.3728  133.3668 C   0  0  0  0  0  0  0  0  0  0  0  0
  144.3717  171.3966  134.5926 O   0  0  0  0  0  0  0  0  0  0  0  0
  145.1969  171.2952  132.4092 C   0  0  0  0  0  0  0  0  0  0  0  0
  146.0345  170.1859  132.2654 C   0  0  0  0  0  0  0  0  0  0  0  0
  146.9720  170.4382  131.2573 C   0  0  0  0  0  0  0  0  0  0  0  0
  147.9975  169.7175  130.7170 C   0  0  0  0  0  0  0  0  0  0  0  0
  148.7997  170.2129  129.6935 C   0  0  0  0  0  0  0  0  0  0  0  0
  149.8757  169.4070  129.2008 N   0  0  0  0  0  0  0  0  0  0  0  0
  149.7468  168.0825  128.8146 C   0  0  0  0  0  0  0  0  0  0  0  0
  148.8709  167.3021  129.3003 O   0  0  0  0  0  0  0  0  0  0  0  0
  150.5841  167.4595  127.8261 N   0  0  0  0  0  0  0  0  0  0  0  0
  151.3508  166.3327  128.2270 C   0  0  0  0  0  0  0  0  0  0  0  0
  150.7761  165.0661  128.2808 C   0  0  0  0  0  0  0  0  0  0  0  0
  151.5933  164.0046  128.5891 C   0  0  0  0  0  0  0  0  0  0  0  0
  152.9336  164.1709  128.8370 C   0  0  0  0  0  0  0  0  0  0  0  0
  153.9152  163.3097  129.1216 N   0  0  0  0  0  0  0  0  0  0  0  0
  155.1106  163.9524  129.2582 C   0  0  0  0  0  0  0  0  0  0  0  0
  154.8612  165.2703  129.0528 C   0  0  0  0  0  0  0  0  0  0  0  0
  153.5182  165.4330  128.7887 C   0  0  0  0  0  0  0  0  0  0  0  0
  152.6987  166.4931  128.4811 C   0  0  0  0  0  0  0  0  0  0  0  0
  156.3375  163.2178  129.5197 C   0  0  0  0  0  0  0  0  0  0  0  0
  156.8780  162.6658  128.5035 O   0  0  0  0  0  0  0  0  0  0  0  0
  156.9510  163.0655  130.7377 N   0  0  0  0  0  0  0  0  0  0  0  0
  157.8298  161.9777  131.2916 C   0  0  0  0  0  0  0  0  0  0  0  0
  156.8534  161.8079  132.5335 C   0  0  1  0  0  0  0  0  0  0  0  0
  156.8312  160.4995  133.0234 C   0  0  0  0  0  0  0  0  0  0  0  0
  158.3010  159.9970  133.8604 Cl  0  0  0  0  0  0  0  0  0  0  0  0
  157.0114  163.1308  133.0516 C   0  0  0  0  0  0  0  0  0  0  0  0
  157.1431  163.7785  134.2685 C   0  0  0  0  0  0  0  0  0  0  0  0
  157.3740  163.3238  135.5382 C   0  0  0  0  0  0  0  0  0  0  0  0
  157.5948  161.9512  136.0186 C   0  0  0  0  0  0  0  0  0  0  0  0
  157.4558  164.4812  136.3419 C   0  0  0  0  0  0  0  0  0  0  0  0
  157.2849  165.5435  135.5713 N   0  0  0  0  0  0  0  0  0  0  0  0
  157.0883  165.1666  134.2705 C   0  0  0  0  0  0  0  0  0  0  0  0
  156.9189  165.9506  133.1487 C   0  0  0  0  0  0  0  0  0  0  0  0
  156.8718  167.3146  133.2292 O   0  0  0  0  0  0  0  0  0  0  0  0
  156.8001  165.3006  131.9453 C   0  0  0  0  0  0  0  0  0  0  0  0
  156.8470  163.9369  131.8867 C   0  0  0  0  0  0  0  0  0  0  0  0
  148.5074  171.4697  129.2514 C   0  0  0  0  0  0  0  0  0  0  0  0
  147.4480  172.2125  129.8109 C   0  0  0  0  0  0  0  0  0  0  0  0
  146.6654  171.7156  130.8173 C   0  0  0  0  0  0  0  0  0  0  0  0
  145.6248  172.1870  131.5098 N   0  0  0  0  0  0  0  0  0  0  0  0
  1  2  1  0
  2  3  2  0
  3  4  1  0
  4  5  1  0
  5  6  2  0
  6  7  1  0
  6  8  1  0
  8  9  2  0
  9 10  1  0
 10 11  1  0
 11 12  1  0
 12 13  1  1
 13 14  1  0
 12 15  1  0
 15 16  2  0
 10 17  1  0
 17 18  2  0
 17 19  1  0
 19 20  2  0
 20 21  1  0
 21 22  2  0
 22 23  1  0
 23 24  1  0
 24 25  1  0
 25 26  2  0
 25 27  1  0
 27 28  1  0
 28 29  2  0
 29 30  1  0
 30 31  2  0
 31 32  1  0
 32 33  1  0
 33 34  2  0
 34 35  1  0
 35 36  2  0
 33 37  1  0
 37 38  2  0
 37 39  1  0
 39 40  1  0
 40 41  1  0
 41 42  1  1
 42 43  1  0
 41 44  1  0
 44 45  2  0
 45 46  1  0
 46 47  1  0
 46 48  2  0
 48 49  1  0
 49 50  1  0
 50 51  2  0
 51 52  1  0
 51 53  1  0
 53 54  2  0
 23 55  2  0
 55 56  1  0
 56 57  2  0
 57 58  1  0
 16  2  1  0
 58 19  1  0
 16  5  1  0
 57 21  1  0
 15  9  1  0
 36 28  1  0
 54 39  1  0
 35 31  1  0
 54 44  1  0
 50 45  1  0
M  END
$$$$
