
     RDKit          3D

 58 67  0  0  0  0  0  0  0  0999 V2000
  200.2298  128.9945  140.9526 C   0  0  0  0  0  0  0  0  0  0  0  0
  200.3587  130.1606  140.0263 C   0  0  0  0  0  0  0  0  0  0  0  0
  199.9317  131.4487  140.2727 C   0  0  0  0  0  0  0  0  0  0  0  0
  200.2437  132.1592  139.1753 N   0  0  0  0  0  0  0  0  0  0  0  0
  200.8393  131.3989  138.2561 C   0  0  0  0  0  0  0  0  0  0  0  0
  201.3220  131.7158  137.0020 C   0  0  0  0  0  0  0  0  0  0  0  0
  201.2150  133.0072  136.5222 O   0  0  0  0  0  0  0  0  0  0  0  0
  201.9005  130.7390  136.2547 C   0  0  0  0  0  0  0  0  0  0  0  0
  201.9985  129.4398  136.7584 C   0  0  0  0  0  0  0  0  0  0  0  0
  202.5582  128.2814  136.1717 N   0  0  0  0  0  0  0  0  0  0  0  0
  201.9044  127.1452  136.8291 C   0  0  0  0  0  0  0  0  0  0  0  0
  201.7678  127.6758  138.2469 C   0  0  1  0  0  0  0  0  0  0  0  0
  203.1005  127.4698  138.9244 C   0  0  0  0  0  0  0  0  0  0  0  0
  203.5325  128.9462  139.8204 Cl  0  0  0  0  0  0  0  0  0  0  0  0
  201.5072  129.1383  138.0218 C   0  0  0  0  0  0  0  0  0  0  0  0
  200.9205  130.1232  138.7824 C   0  0  0  0  0  0  0  0  0  0  0  0
  203.5423  128.1868  135.1566 C   0  0  0  0  0  0  0  0  0  0  0  0
  203.6091  127.1271  134.4890 O   0  0  0  0  0  0  0  0  0  0  0  0
  204.4690  129.2667  134.8648 C   0  0  0  0  0  0  0  0  0  0  0  0
  204.1959  130.3147  133.9818 C   0  0  0  0  0  0  0  0  0  0  0  0
  205.2943  131.1806  133.9332 C   0  0  0  0  0  0  0  0  0  0  0  0
  205.5601  132.3348  133.2548 C   0  0  0  0  0  0  0  0  0  0  0  0
  206.7637  133.0200  133.3905 C   0  0  0  0  0  0  0  0  0  0  0  0
  206.9787  134.2078  132.6206 N   0  0  0  0  0  0  0  0  0  0  0  0
  206.3225  135.4090  132.8370 C   0  0  0  0  0  0  0  0  0  0  0  0
  205.0778  135.4844  133.0758 O   0  0  0  0  0  0  0  0  0  0  0  0
  206.9805  136.6868  132.8181 N   0  0  0  0  0  0  0  0  0  0  0  0
  206.1687  137.8480  132.9230 C   0  0  0  0  0  0  0  0  0  0  0  0
  206.2080  138.6405  134.0667 C   0  0  0  0  0  0  0  0  0  0  0  0
  205.4668  139.7981  134.0694 C   0  0  0  0  0  0  0  0  0  0  0  0
  204.7087  140.1750  132.9883 C   0  0  0  0  0  0  0  0  0  0  0  0
  203.9445  141.2446  132.7473 N   0  0  0  0  0  0  0  0  0  0  0  0
  203.4032  141.1918  131.4964 C   0  0  0  0  0  0  0  0  0  0  0  0
  203.8472  140.0384  130.9364 C   0  0  0  0  0  0  0  0  0  0  0  0
  204.6598  139.3889  131.8408 C   0  0  0  0  0  0  0  0  0  0  0  0
  205.4013  138.2313  131.8408 C   0  0  0  0  0  0  0  0  0  0  0  0
  202.5734  142.2711  130.9863 C   0  0  0  0  0  0  0  0  0  0  0  0
  201.3584  142.2659  131.3777 O   0  0  0  0  0  0  0  0  0  0  0  0
  202.9718  143.2717  130.1359 N   0  0  0  0  0  0  0  0  0  0  0  0
  204.3344  143.7612  129.7280 C   0  0  0  0  0  0  0  0  0  0  0  0
  203.9498  145.2357  130.1778 C   0  0  1  0  0  0  0  0  0  0  0  0
  205.0534  145.9633  130.6307 C   0  0  0  0  0  0  0  0  0  0  0  0
  205.1747  146.1097  132.3849 Cl  0  0  0  0  0  0  0  0  0  0  0  0
  202.8679  145.4128  129.2604 C   0  0  0  0  0  0  0  0  0  0  0  0
  202.3331  146.3882  128.4354 C   0  0  0  0  0  0  0  0  0  0  0  0
  202.7993  147.6054  128.0195 C   0  0  0  0  0  0  0  0  0  0  0  0
  204.0807  148.2685  128.3065 C   0  0  0  0  0  0  0  0  0  0  0  0
  201.8128  148.1051  127.1425 C   0  0  0  0  0  0  0  0  0  0  0  0
  200.8345  147.2178  127.0575 N   0  0  0  0  0  0  0  0  0  0  0  0
  201.1054  146.1279  127.8396 C   0  0  0  0  0  0  0  0  0  0  0  0
  200.3805  144.9662  128.0025 C   0  0  0  0  0  0  0  0  0  0  0  0
  199.1749  144.7823  127.3844 O   0  0  0  0  0  0  0  0  0  0  0  0
  200.9233  144.0005  128.8133 C   0  0  0  0  0  0  0  0  0  0  0  0
  202.1277  144.2048  129.4239 C   0  0  0  0  0  0  0  0  0  0  0  0
  207.6761  132.4748  134.2453 C   0  0  0  0  0  0  0  0  0  0  0  0
  207.3998  131.2826  134.9449 C   0  0  0  0  0  0  0  0  0  0  0  0
  206.2128  130.6168  134.8039 C   0  0  0  0  0  0  0  0  0  0  0  0
  205.7000  129.5014  135.3307 N   0  0  0  0  0  0  0  0  0  0  0  0
  1  2  1  0
  2  3  2  0
  3  4  1  0
  4  5  1  0
  5  6  2  0
  6  7  1  0
  6  8  1  0
  8  9  2  0
  9 10  1  0
 10 11  1  0
 11 12  1  0
 12 13  1  1
 13 14  1  0
 12 15  1  0
 15 16  2  0
 10 17  1  0
 17 18  2  0
 17 19  1  0
 19 20  2  0
 20 21  1  0
 21 22  2  0
 22 23  1  0
 23 24  1  0
 24 25  1  0
 25 26  2  0
 25 27  1  0
 27 28  1  0
 28 29  2  0
 29 30  1  0
 30 31  2  0
 31 32  1  0
 32 33  1  0
 33 34  2  0
 34 35  1  0
 35 36  2  0
 33 37  1  0
 37 38  2  0
 37 39  1  0
 39 40  1  0
 40 41  1  0
 41 42  1  6
 42 43  1  0
 41 44  1  0
 44 45  2  0
 45 46  1  0
 46 47  1  0
 46 48  2  0
 48 49  1  0
 49 50  1  0
 50 51  2  0
 51 52  1  0
 51 53  1  0
 53 54  2  0
 23 55  2  0
 55 56  1  0
 56 57  2  0
 57 58  1  0
 16  2  1  0
 58 19  1  0
 16  5  1  0
 57 21  1  0
 15  9  1  0
 36 28  1  0
 54 39  1  0
 35 31  1  0
 54 44  1  0
 50 45  1  0
M  END
$$$$
