
     RDKit          3D

 58 67  0  0  0  0  0  0  0  0999 V2000
  124.1110  152.1966  132.8405 C   0  0  0  0  0  0  0  0  0  0  0  0
  124.5977  150.9423  133.4920 C   0  0  0  0  0  0  0  0  0  0  0  0
  124.4655  150.6116  134.8244 C   0  0  0  0  0  0  0  0  0  0  0  0
  125.0465  149.4080  134.9673 N   0  0  0  0  0  0  0  0  0  0  0  0
  125.5348  148.9627  133.8092 C   0  0  0  0  0  0  0  0  0  0  0  0
  126.1971  147.7904  133.5036 C   0  0  0  0  0  0  0  0  0  0  0  0
  126.4509  146.8579  134.4914 O   0  0  0  0  0  0  0  0  0  0  0  0
  126.5912  147.5737  132.2211 C   0  0  0  0  0  0  0  0  0  0  0  0
  126.3248  148.5294  131.2377 C   0  0  0  0  0  0  0  0  0  0  0  0
  126.6294  148.5164  129.8569 N   0  0  0  0  0  0  0  0  0  0  0  0
  126.6619  149.9225  129.4420 C   0  0  0  0  0  0  0  0  0  0  0  0
  125.5406  150.4970  130.2922 C   0  0  1  0  0  0  0  0  0  0  0  0
  124.2456  150.1817  129.5844 C   0  0  0  0  0  0  0  0  0  0  0  0
  124.3071  150.8468  127.9342 Cl  0  0  0  0  0  0  0  0  0  0  0  0
  125.6581  149.7034  131.5626 C   0  0  0  0  0  0  0  0  0  0  0  0
  125.2571  149.9279  132.8593 C   0  0  0  0  0  0  0  0  0  0  0  0
  126.8661  147.4053  129.0099 C   0  0  0  0  0  0  0  0  0  0  0  0
  126.3668  147.4166  127.8594 O   0  0  0  0  0  0  0  0  0  0  0  0
  127.6614  146.2628  129.4251 C   0  0  0  0  0  0  0  0  0  0  0  0
  127.1208  145.0553  129.8749 C   0  0  0  0  0  0  0  0  0  0  0  0
  128.1577  144.1700  130.1905 C   0  0  0  0  0  0  0  0  0  0  0  0
  128.1982  142.8888  130.6595 C   0  0  0  0  0  0  0  0  0  0  0  0
  129.3944  142.2171  130.8932 C   0  0  0  0  0  0  0  0  0  0  0  0
  129.3535  140.8845  131.4152 N   0  0  0  0  0  0  0  0  0  0  0  0
  129.5488  139.7415  130.6565 C   0  0  0  0  0  0  0  0  0  0  0  0
  130.0936  139.7568  129.5098 O   0  0  0  0  0  0  0  0  0  0  0  0
  129.1611  138.4267  131.0891 N   0  0  0  0  0  0  0  0  0  0  0  0
  130.1129  137.3807  130.9535 C   0  0  0  0  0  0  0  0  0  0  0  0
  130.4770  136.9113  129.6946 C   0  0  0  0  0  0  0  0  0  0  0  0
  131.4682  135.9611  129.6275 C   0  0  0  0  0  0  0  0  0  0  0  0
  132.0891  135.4817  130.7545 C   0  0  0  0  0  0  0  0  0  0  0  0
  133.0765  134.6001  130.9384 N   0  0  0  0  0  0  0  0  0  0  0  0
  133.3788  134.4674  132.2619 C   0  0  0  0  0  0  0  0  0  0  0  0
  132.5413  135.3000  132.9302 C   0  0  0  0  0  0  0  0  0  0  0  0
  131.7311  135.9420  132.0183 C   0  0  0  0  0  0  0  0  0  0  0  0
  130.7390  136.8914  132.0829 C   0  0  0  0  0  0  0  0  0  0  0  0
  134.4570  133.5999  132.7072 C   0  0  0  0  0  0  0  0  0  0  0  0
  134.2726  132.3504  132.5225 O   0  0  0  0  0  0  0  0  0  0  0  0
  135.6293  133.9973  133.2997 N   0  0  0  0  0  0  0  0  0  0  0  0
  136.1796  135.3586  133.6260 C   0  0  0  0  0  0  0  0  0  0  0  0
  137.5042  135.0286  132.8128 C   0  0  1  0  0  0  0  0  0  0  0  0
  138.0773  136.1655  132.2370 C   0  0  0  0  0  0  0  0  0  0  0  0
  137.2972  137.6880  132.6692 Cl  0  0  0  0  0  0  0  0  0  0  0  0
  137.9218  133.9227  133.6166 C   0  0  0  0  0  0  0  0  0  0  0  0
  139.0802  133.3879  134.1552 C   0  0  0  0  0  0  0  0  0  0  0  0
  140.3538  133.8729  134.2761 C   0  0  0  0  0  0  0  0  0  0  0  0
  140.9022  135.1802  133.8836 C   0  0  0  0  0  0  0  0  0  0  0  0
  141.0724  132.8723  134.9650 C   0  0  0  0  0  0  0  0  0  0  0  0
  140.2513  131.8683  135.2285 N   0  0  0  0  0  0  0  0  0  0  0  0
  138.9973  132.1350  134.7496 C   0  0  0  0  0  0  0  0  0  0  0  0
  137.8447  131.3847  134.8502 C   0  0  0  0  0  0  0  0  0  0  0  0
  137.8409  130.1553  135.4483 O   0  0  0  0  0  0  0  0  0  0  0  0
  136.6990  131.9274  134.3233 C   0  0  0  0  0  0  0  0  0  0  0  0
  136.7245  133.1560  133.7275 C   0  0  0  0  0  0  0  0  0  0  0  0
  130.5385  142.9104  130.6273 C   0  0  0  0  0  0  0  0  0  0  0  0
  130.4946  144.2336  130.1432 C   0  0  0  0  0  0  0  0  0  0  0  0
  129.3126  144.8848  129.9170 C   0  0  0  0  0  0  0  0  0  0  0  0
  128.9878  146.1018  129.4720 N   0  0  0  0  0  0  0  0  0  0  0  0
  1  2  1  0
  2  3  2  0
  3  4  1  0
  4  5  1  0
  5  6  2  0
  6  7  1  0
  6  8  1  0
  8  9  2  0
  9 10  1  0
 10 11  1  0
 11 12  1  0
 12 13  1  6
 13 14  1  0
 12 15  1  0
 15 16  2  0
 10 17  1  0
 17 18  2  0
 17 19  1  0
 19 20  2  0
 20 21  1  0
 21 22  2  0
 22 23  1  0
 23 24  1  0
 24 25  1  0
 25 26  2  0
 25 27  1  0
 27 28  1  0
 28 29  2  0
 29 30  1  0
 30 31  2  0
 31 32  1  0
 32 33  1  0
 33 34  2  0
 34 35  1  0
 35 36  2  0
 33 37  1  0
 37 38  2  0
 37 39  1  0
 39 40  1  0
 40 41  1  0
 41 42  1  1
 42 43  1  0
 41 44  1  0
 44 45  2  0
 45 46  1  0
 46 47  1  0
 46 48  2  0
 48 49  1  0
 49 50  1  0
 50 51  2  0
 51 52  1  0
 51 53  1  0
 53 54  2  0
 23 55  2  0
 55 56  1  0
 56 57  2  0
 57 58  1  0
 16  2  1  0
 58 19  1  0
 16  5  1  0
 57 21  1  0
 15  9  1  0
 36 28  1  0
 54 39  1  0
 35 31  1  0
 54 44  1  0
 50 45  1  0
M  END
$$$$
