
     RDKit          3D

 58 67  0  0  0  0  0  0  0  0999 V2000
  168.8500  147.0538  136.9435 C   0  0  0  0  0  0  0  0  0  0  0  0
  168.6075  146.8262  135.4861 C   0  0  0  0  0  0  0  0  0  0  0  0
  167.4148  146.4448  134.9080 C   0  0  0  0  0  0  0  0  0  0  0  0
  167.6542  146.3553  133.5884 N   0  0  0  0  0  0  0  0  0  0  0  0
  168.9211  146.6564  133.3020 C   0  0  0  0  0  0  0  0  0  0  0  0
  169.5849  146.6953  132.0920 C   0  0  0  0  0  0  0  0  0  0  0  0
  168.9177  146.3826  130.9230 O   0  0  0  0  0  0  0  0  0  0  0  0
  170.8982  147.0449  132.0741 C   0  0  0  0  0  0  0  0  0  0  0  0
  171.5540  147.3571  133.2673 C   0  0  0  0  0  0  0  0  0  0  0  0
  172.8948  147.7487  133.4875 N   0  0  0  0  0  0  0  0  0  0  0  0
  173.1916  147.3921  134.8786 C   0  0  0  0  0  0  0  0  0  0  0  0
  171.8582  147.6958  135.5418 C   0  0  1  0  0  0  0  0  0  0  0  0
  171.8202  149.1834  135.7934 C   0  0  0  0  0  0  0  0  0  0  0  0
  170.1952  149.6364  136.3622 Cl  0  0  0  0  0  0  0  0  0  0  0  0
  170.8713  147.3124  134.4757 C   0  0  0  0  0  0  0  0  0  0  0  0
  169.5419  146.9589  134.4995 C   0  0  0  0  0  0  0  0  0  0  0  0
  173.8022  148.3569  132.5849 C   0  0  0  0  0  0  0  0  0  0  0  0
  174.8064  148.9435  133.0548 O   0  0  0  0  0  0  0  0  0  0  0  0
  173.6110  148.3243  131.1453 C   0  0  0  0  0  0  0  0  0  0  0  0
  172.4489  148.7562  130.5005 C   0  0  0  0  0  0  0  0  0  0  0  0
  172.5948  148.5912  129.1184 C   0  0  0  0  0  0  0  0  0  0  0  0
  171.7906  148.8447  128.0451 C   0  0  0  0  0  0  0  0  0  0  0  0
  172.1872  148.5832  126.7370 C   0  0  0  0  0  0  0  0  0  0  0  0
  171.2738  148.8484  125.6669 N   0  0  0  0  0  0  0  0  0  0  0  0
  169.9770  149.3046  125.8412 C   0  0  0  0  0  0  0  0  0  0  0  0
  169.3593  149.2283  126.9479 O   0  0  0  0  0  0  0  0  0  0  0  0
  169.2025  149.9123  124.7937 N   0  0  0  0  0  0  0  0  0  0  0  0
  167.9270  150.4359  125.1360 C   0  0  0  0  0  0  0  0  0  0  0  0
  167.6829  151.8051  125.0778 C   0  0  0  0  0  0  0  0  0  0  0  0
  166.4040  152.2391  125.3342 C   0  0  0  0  0  0  0  0  0  0  0  0
  165.3898  151.3645  125.6376 C   0  0  0  0  0  0  0  0  0  0  0  0
  164.0892  151.5392  125.8904 N   0  0  0  0  0  0  0  0  0  0  0  0
  163.4657  150.3466  126.1129 C   0  0  0  0  0  0  0  0  0  0  0  0
  164.4202  149.3891  125.9966 C   0  0  0  0  0  0  0  0  0  0  0  0
  165.6231  149.9938  125.7012 C   0  0  0  0  0  0  0  0  0  0  0  0
  166.9030  149.5623  125.4453 C   0  0  0  0  0  0  0  0  0  0  0  0
  162.0348  150.2768  126.3600 C   0  0  0  0  0  0  0  0  0  0  0  0
  161.6579  150.6313  127.5269 O   0  0  0  0  0  0  0  0  0  0  0  0
  161.0741  149.8682  125.4693 N   0  0  0  0  0  0  0  0  0  0  0  0
  159.5805  150.0450  125.4504 C   0  0  0  0  0  0  0  0  0  0  0  0
  159.3865  148.4729  125.3259 C   0  0  1  0  0  0  0  0  0  0  0  0
  158.2048  148.0291  125.9254 C   0  0  0  0  0  0  0  0  0  0  0  0
  158.2337  148.0032  127.6894 Cl  0  0  0  0  0  0  0  0  0  0  0  0
  160.0626  148.3202  124.0757 C   0  0  0  0  0  0  0  0  0  0  0  0
  159.9377  147.6201  122.8874 C   0  0  0  0  0  0  0  0  0  0  0  0
  158.9191  146.8795  122.3527 C   0  0  0  0  0  0  0  0  0  0  0  0
  157.5731  146.6130  122.8829 C   0  0  0  0  0  0  0  0  0  0  0  0
  159.3826  146.4635  121.0861 C   0  0  0  0  0  0  0  0  0  0  0  0
  160.6018  146.9448  120.9035 N   0  0  0  0  0  0  0  0  0  0  0  0
  160.9980  147.6745  121.9914 C   0  0  0  0  0  0  0  0  0  0  0  0
  162.1655  148.3801  122.1933 C   0  0  0  0  0  0  0  0  0  0  0  0
  163.1690  148.3842  121.2648 O   0  0  0  0  0  0  0  0  0  0  0  0
  162.2762  149.0799  123.3693 C   0  0  0  0  0  0  0  0  0  0  0  0
  161.2633  149.0606  124.2852 C   0  0  0  0  0  0  0  0  0  0  0  0
  173.4344  148.0545  126.5783 C   0  0  0  0  0  0  0  0  0  0  0  0
  174.2635  147.7932  127.6881 C   0  0  0  0  0  0  0  0  0  0  0  0
  173.8633  148.0541  128.9703 C   0  0  0  0  0  0  0  0  0  0  0  0
  174.4292  147.9112  130.1719 N   0  0  0  0  0  0  0  0  0  0  0  0
  1  2  1  0
  2  3  2  0
  3  4  1  0
  4  5  1  0
  5  6  2  0
  6  7  1  0
  6  8  1  0
  8  9  2  0
  9 10  1  0
 10 11  1  0
 11 12  1  0
 12 13  1  6
 13 14  1  0
 12 15  1  0
 15 16  2  0
 10 17  1  0
 17 18  2  0
 17 19  1  0
 19 20  2  0
 20 21  1  0
 21 22  2  0
 22 23  1  0
 23 24  1  0
 24 25  1  0
 25 26  2  0
 25 27  1  0
 27 28  1  0
 28 29  2  0
 29 30  1  0
 30 31  2  0
 31 32  1  0
 32 33  1  0
 33 34  2  0
 34 35  1  0
 35 36  2  0
 33 37  1  0
 37 38  2  0
 37 39  1  0
 39 40  1  0
 40 41  1  0
 41 42  1  6
 42 43  1  0
 41 44  1  0
 44 45  2  0
 45 46  1  0
 46 47  1  0
 46 48  2  0
 48 49  1  0
 49 50  1  0
 50 51  2  0
 51 52  1  0
 51 53  1  0
 53 54  2  0
 23 55  2  0
 55 56  1  0
 56 57  2  0
 57 58  1  0
 16  2  1  0
 58 19  1  0
 16  5  1  0
 57 21  1  0
 15  9  1  0
 36 28  1  0
 54 39  1  0
 35 31  1  0
 54 44  1  0
 50 45  1  0
M  END
$$$$
