
     RDKit          3D

 58 67  0  0  0  0  0  0  0  0999 V2000
  123.5575  152.5022  138.8783 C   0  0  0  0  0  0  0  0  0  0  0  0
  123.7950  152.9667  137.4775 C   0  0  0  0  0  0  0  0  0  0  0  0
  123.3575  154.1531  136.9267 C   0  0  0  0  0  0  0  0  0  0  0  0
  123.7903  154.1532  135.6542 N   0  0  0  0  0  0  0  0  0  0  0  0
  124.4716  153.0424  135.3717 C   0  0  0  0  0  0  0  0  0  0  0  0
  125.0867  152.6370  134.2040 C   0  0  0  0  0  0  0  0  0  0  0  0
  125.0438  153.4408  133.0807 O   0  0  0  0  0  0  0  0  0  0  0  0
  125.7307  151.4404  134.1820 C   0  0  0  0  0  0  0  0  0  0  0  0
  125.7620  150.6430  135.3285 C   0  0  0  0  0  0  0  0  0  0  0  0
  126.3686  149.3830  135.5383 N   0  0  0  0  0  0  0  0  0  0  0  0
  125.6378  148.7685  136.6514 C   0  0  0  0  0  0  0  0  0  0  0  0
  125.3582  149.9866  137.5164 C   0  0  1  0  0  0  0  0  0  0  0  0
  126.6101  150.2563  138.3148 C   0  0  0  0  0  0  0  0  0  0  0  0
  127.8926  150.8174  137.2149 Cl  0  0  0  0  0  0  0  0  0  0  0  0
  125.1375  151.0658  136.4945 C   0  0  0  0  0  0  0  0  0  0  0  0
  124.4841  152.2762  136.5222 C   0  0  0  0  0  0  0  0  0  0  0  0
  127.4530  148.7924  134.8432 C   0  0  0  0  0  0  0  0  0  0  0  0
  128.4358  149.5141  134.5494 O   0  0  0  0  0  0  0  0  0  0  0  0
  127.4655  147.3906  134.4627 C   0  0  0  0  0  0  0  0  0  0  0  0
  128.4628  146.4867  134.8384 C   0  0  0  0  0  0  0  0  0  0  0  0
  128.1707  145.2246  134.3087 C   0  0  0  0  0  0  0  0  0  0  0  0
  128.7891  144.0091  134.3639 C   0  0  0  0  0  0  0  0  0  0  0  0
  128.2741  142.8804  133.7334 C   0  0  0  0  0  0  0  0  0  0  0  0
  128.9984  141.6480  133.8125 N   0  0  0  0  0  0  0  0  0  0  0  0
  129.8558  141.1808  132.8292 C   0  0  0  0  0  0  0  0  0  0  0  0
  129.7796  141.5439  131.6149 O   0  0  0  0  0  0  0  0  0  0  0  0
  130.9173  140.2450  133.0816 N   0  0  0  0  0  0  0  0  0  0  0  0
  131.2862  139.3666  132.0278 C   0  0  0  0  0  0  0  0  0  0  0  0
  131.1040  137.9922  132.1529 C   0  0  0  0  0  0  0  0  0  0  0  0
  131.3970  137.2057  131.0643 C   0  0  0  0  0  0  0  0  0  0  0  0
  131.8538  137.7418  129.8856 C   0  0  0  0  0  0  0  0  0  0  0  0
  132.1714  137.1981  128.7068 N   0  0  0  0  0  0  0  0  0  0  0  0
  132.5551  138.1526  127.8111 C   0  0  0  0  0  0  0  0  0  0  0  0
  132.4758  139.3408  128.4616 C   0  0  0  0  0  0  0  0  0  0  0  0
  132.0424  139.1142  129.7503 C   0  0  0  0  0  0  0  0  0  0  0  0
  131.7495  139.8986  130.8406 C   0  0  0  0  0  0  0  0  0  0  0  0
  132.9006  137.8080  126.4416 C   0  0  0  0  0  0  0  0  0  0  0  0
  131.9343  137.3996  125.7143 O   0  0  0  0  0  0  0  0  0  0  0  0
  134.1485  137.8779  125.8749 N   0  0  0  0  0  0  0  0  0  0  0  0
  135.4018  138.5989  126.2893 C   0  0  0  0  0  0  0  0  0  0  0  0
  135.4710  139.3132  124.8717 C   0  0  1  0  0  0  0  0  0  0  0  0
  136.0570  140.5800  124.9374 C   0  0  0  0  0  0  0  0  0  0  0  0
  137.1566  140.8178  126.2967 Cl  0  0  0  0  0  0  0  0  0  0  0  0
  135.6053  138.1227  124.0919 C   0  0  0  0  0  0  0  0  0  0  0  0
  136.3058  137.6551  122.9925 C   0  0  0  0  0  0  0  0  0  0  0  0
  137.3669  138.1573  122.2897 C   0  0  0  0  0  0  0  0  0  0  0  0
  138.1448  139.3855  122.5134 C   0  0  0  0  0  0  0  0  0  0  0  0
  137.6580  137.1877  121.3062 C   0  0  0  0  0  0  0  0  0  0  0  0
  136.8101  136.1806  121.4420 N   0  0  0  0  0  0  0  0  0  0  0  0
  135.9467  136.4159  122.4774 C   0  0  0  0  0  0  0  0  0  0  0  0
  134.9475  135.6113  122.9832 C   0  0  0  0  0  0  0  0  0  0  0  0
  134.6482  134.4021  122.4197 O   0  0  0  0  0  0  0  0  0  0  0  0
  134.2656  136.0779  124.0796 C   0  0  0  0  0  0  0  0  0  0  0  0
  134.5781  137.2899  124.6259 C   0  0  0  0  0  0  0  0  0  0  0  0
  127.1067  143.0507  133.0489 C   0  0  0  0  0  0  0  0  0  0  0  0
  126.4697  144.3070  132.9929 C   0  0  0  0  0  0  0  0  0  0  0  0
  126.9850  145.4105  133.6166 C   0  0  0  0  0  0  0  0  0  0  0  0
  126.6005  146.6851  133.7267 N   0  0  0  0  0  0  0  0  0  0  0  0
  1  2  1  0
  2  3  2  0
  3  4  1  0
  4  5  1  0
  5  6  2  0
  6  7  1  0
  6  8  1  0
  8  9  2  0
  9 10  1  0
 10 11  1  0
 11 12  1  0
 12 13  1  1
 13 14  1  0
 12 15  1  0
 15 16  2  0
 10 17  1  0
 17 18  2  0
 17 19  1  0
 19 20  2  0
 20 21  1  0
 21 22  2  0
 22 23  1  0
 23 24  1  0
 24 25  1  0
 25 26  2  0
 25 27  1  0
 27 28  1  0
 28 29  2  0
 29 30  1  0
 30 31  2  0
 31 32  1  0
 32 33  1  0
 33 34  2  0
 34 35  1  0
 35 36  2  0
 33 37  1  0
 37 38  2  0
 37 39  1  0
 39 40  1  0
 40 41  1  0
 41 42  1  1
 42 43  1  0
 41 44  1  0
 44 45  2  0
 45 46  1  0
 46 47  1  0
 46 48  2  0
 48 49  1  0
 49 50  1  0
 50 51  2  0
 51 52  1  0
 51 53  1  0
 53 54  2  0
 23 55  2  0
 55 56  1  0
 56 57  2  0
 57 58  1  0
 16  2  1  0
 58 19  1  0
 16  5  1  0
 57 21  1  0
 15  9  1  0
 36 28  1  0
 54 39  1  0
 35 31  1  0
 54 44  1  0
 50 45  1  0
M  END
$$$$
