
     RDKit          3D

 58 67  0  0  0  0  0  0  0  0999 V2000
  125.7982  153.5533  150.1429 C   0  0  0  0  0  0  0  0  0  0  0  0
  125.9948  155.0109  149.8758 C   0  0  0  0  0  0  0  0  0  0  0  0
  125.4370  155.7327  148.8413 C   0  0  0  0  0  0  0  0  0  0  0  0
  125.8845  156.9921  148.9842 N   0  0  0  0  0  0  0  0  0  0  0  0
  126.6874  157.1062  150.0426 C   0  0  0  0  0  0  0  0  0  0  0  0
  127.3534  158.2030  150.5522 C   0  0  0  0  0  0  0  0  0  0  0  0
  127.2399  159.4338  149.9342 O   0  0  0  0  0  0  0  0  0  0  0  0
  128.1170  158.0488  151.6659 C   0  0  0  0  0  0  0  0  0  0  0  0
  128.2184  156.7959  152.2752 C   0  0  0  0  0  0  0  0  0  0  0  0
  128.9377  156.4058  153.4284 N   0  0  0  0  0  0  0  0  0  0  0  0
  129.1673  154.9643  153.2870 C   0  0  0  0  0  0  0  0  0  0  0  0
  127.8663  154.5309  152.6314 C   0  0  1  0  0  0  0  0  0  0  0  0
  126.8431  154.3932  153.7321 C   0  0  0  0  0  0  0  0  0  0  0  0
  127.4291  153.2107  154.9270 Cl  0  0  0  0  0  0  0  0  0  0  0  0
  127.5421  155.7031  151.7489 C   0  0  0  0  0  0  0  0  0  0  0  0
  126.7680  155.8536  150.6217 C   0  0  0  0  0  0  0  0  0  0  0  0
  129.3720  157.2030  154.5163 C   0  0  0  0  0  0  0  0  0  0  0  0
  128.5454  157.9783  155.0538 O   0  0  0  0  0  0  0  0  0  0  0  0
  130.7311  157.1532  155.0267 C   0  0  0  0  0  0  0  0  0  0  0  0
  131.5198  158.2823  155.2633 C   0  0  0  0  0  0  0  0  0  0  0  0
  132.7686  157.8834  155.7533 C   0  0  0  0  0  0  0  0  0  0  0  0
  133.8913  158.5555  156.1416 C   0  0  0  0  0  0  0  0  0  0  0  0
  135.0293  157.9022  156.6052 C   0  0  0  0  0  0  0  0  0  0  0  0
  136.1784  158.6770  156.9646 N   0  0  0  0  0  0  0  0  0  0  0  0
  136.6466  159.7623  156.2414 C   0  0  0  0  0  0  0  0  0  0  0  0
  135.8822  160.5529  155.6068 O   0  0  0  0  0  0  0  0  0  0  0  0
  138.0386  160.1062  156.1390 N   0  0  0  0  0  0  0  0  0  0  0  0
  138.4673  161.3107  156.7585 C   0  0  0  0  0  0  0  0  0  0  0  0
  138.7143  162.4506  155.9987 C   0  0  0  0  0  0  0  0  0  0  0  0
  139.0391  163.6074  156.6666 C   0  0  0  0  0  0  0  0  0  0  0  0
  139.1203  163.6540  158.0366 C   0  0  0  0  0  0  0  0  0  0  0  0
  139.3830  164.6444  158.8946 N   0  0  0  0  0  0  0  0  0  0  0  0
  139.3206  164.2078  160.1854 C   0  0  0  0  0  0  0  0  0  0  0  0
  139.0088  162.8884  160.1276 C   0  0  0  0  0  0  0  0  0  0  0  0
  138.8781  162.5197  158.8059 C   0  0  0  0  0  0  0  0  0  0  0  0
  138.5543  161.3640  158.1357 C   0  0  0  0  0  0  0  0  0  0  0  0
  139.5206  165.1181  161.3011 C   0  0  0  0  0  0  0  0  0  0  0  0
  140.7353  165.4020  161.5714 O   0  0  0  0  0  0  0  0  0  0  0  0
  138.5392  165.6839  162.0757 N   0  0  0  0  0  0  0  0  0  0  0  0
  137.3674  166.5616  161.7307 C   0  0  0  0  0  0  0  0  0  0  0  0
  137.8629  167.6505  162.7764 C   0  0  1  0  0  0  0  0  0  0  0  0
  137.5186  168.9513  162.4000 C   0  0  0  0  0  0  0  0  0  0  0  0
  135.8524  169.1477  161.8534 Cl  0  0  0  0  0  0  0  0  0  0  0  0
  137.7656  166.8225  163.9376 C   0  0  0  0  0  0  0  0  0  0  0  0
  137.3642  166.9036  165.2606 C   0  0  0  0  0  0  0  0  0  0  0  0
  136.6757  167.8557  165.9616 C   0  0  0  0  0  0  0  0  0  0  0  0
  136.0966  169.1266  165.4999 C   0  0  0  0  0  0  0  0  0  0  0  0
  136.5331  167.3321  167.2646 C   0  0  0  0  0  0  0  0  0  0  0  0
  137.1067  166.1401  167.3059 N   0  0  0  0  0  0  0  0  0  0  0  0
  137.6388  165.8207  166.0862 C   0  0  0  0  0  0  0  0  0  0  0  0
  138.2765  164.6654  165.6855 C   0  0  0  0  0  0  0  0  0  0  0  0
  138.5152  163.6402  166.5580 O   0  0  0  0  0  0  0  0  0  0  0  0
  138.6611  164.5892  164.3699 C   0  0  0  0  0  0  0  0  0  0  0  0
  138.4157  165.6256  163.5149 C   0  0  0  0  0  0  0  0  0  0  0  0
  134.9668  156.5406  156.6530 C   0  0  0  0  0  0  0  0  0  0  0  0
  133.8065  155.8483  156.2513 C   0  0  0  0  0  0  0  0  0  0  0  0
  132.6929  156.5007  155.7969 C   0  0  0  0  0  0  0  0  0  0  0  0
  131.4910  156.1070  155.3665 N   0  0  0  0  0  0  0  0  0  0  0  0
  1  2  1  0
  2  3  2  0
  3  4  1  0
  4  5  1  0
  5  6  2  0
  6  7  1  0
  6  8  1  0
  8  9  2  0
  9 10  1  0
 10 11  1  0
 11 12  1  0
 12 13  1  1
 13 14  1  0
 12 15  1  0
 15 16  2  0
 10 17  1  0
 17 18  2  0
 17 19  1  0
 19 20  2  0
 20 21  1  0
 21 22  2  0
 22 23  1  0
 23 24  1  0
 24 25  1  0
 25 26  2  0
 25 27  1  0
 27 28  1  0
 28 29  2  0
 29 30  1  0
 30 31  2  0
 31 32  1  0
 32 33  1  0
 33 34  2  0
 34 35  1  0
 35 36  2  0
 33 37  1  0
 37 38  2  0
 37 39  1  0
 39 40  1  0
 40 41  1  0
 41 42  1  1
 42 43  1  0
 41 44  1  0
 44 45  2  0
 45 46  1  0
 46 47  1  0
 46 48  2  0
 48 49  1  0
 49 50  1  0
 50 51  2  0
 51 52  1  0
 51 53  1  0
 53 54  2  0
 23 55  2  0
 55 56  1  0
 56 57  2  0
 57 58  1  0
 16  2  1  0
 58 19  1  0
 16  5  1  0
 57 21  1  0
 15  9  1  0
 36 28  1  0
 54 39  1  0
 35 31  1  0
 54 44  1  0
 50 45  1  0
M  END
$$$$
