
     RDKit          3D

 58 67  0  0  0  0  0  0  0  0999 V2000
  192.6614  154.4873  116.6147 C   0  0  0  0  0  0  0  0  0  0  0  0
  192.0204  155.5529  115.7852 C   0  0  0  0  0  0  0  0  0  0  0  0
  191.4492  155.3846  114.5412 C   0  0  0  0  0  0  0  0  0  0  0  0
  191.0052  156.5976  114.1696 N   0  0  0  0  0  0  0  0  0  0  0  0
  191.2615  157.5162  115.1016 C   0  0  0  0  0  0  0  0  0  0  0  0
  190.9807  158.8676  115.1336 C   0  0  0  0  0  0  0  0  0  0  0  0
  190.3332  159.4682  114.0707 O   0  0  0  0  0  0  0  0  0  0  0  0
  191.3510  159.5898  116.2238 C   0  0  0  0  0  0  0  0  0  0  0  0
  192.0048  158.9632  117.2875 C   0  0  0  0  0  0  0  0  0  0  0  0
  192.4704  159.5038  118.5083 N   0  0  0  0  0  0  0  0  0  0  0  0
  193.5359  158.6044  118.9625 C   0  0  0  0  0  0  0  0  0  0  0  0
  192.9814  157.2596  118.5220 C   0  0  1  0  0  0  0  0  0  0  0  0
  191.9884  156.8271  119.5731 C   0  0  0  0  0  0  0  0  0  0  0  0
  190.6585  158.0089  119.6388 Cl  0  0  0  0  0  0  0  0  0  0  0  0
  192.2800  157.6030  117.2384 C   0  0  0  0  0  0  0  0  0  0  0  0
  191.9075  156.8673  116.1372 C   0  0  0  0  0  0  0  0  0  0  0  0
  192.0346  160.6684  119.1878 C   0  0  0  0  0  0  0  0  0  0  0  0
  190.9369  161.1760  118.8554 O   0  0  0  0  0  0  0  0  0  0  0  0
  192.8094  161.2894  120.2480 C   0  0  0  0  0  0  0  0  0  0  0  0
  192.2474  161.9176  121.3626 C   0  0  0  0  0  0  0  0  0  0  0  0
  193.2686  162.4046  122.1865 C   0  0  0  0  0  0  0  0  0  0  0  0
  193.2865  163.0803  123.3723 C   0  0  0  0  0  0  0  0  0  0  0  0
  194.4707  163.4556  123.9996 C   0  0  0  0  0  0  0  0  0  0  0  0
  194.4052  164.1898  125.2270 N   0  0  0  0  0  0  0  0  0  0  0  0
  193.7727  163.7392  126.3746 C   0  0  0  0  0  0  0  0  0  0  0  0
  193.6248  162.5075  126.6451 O   0  0  0  0  0  0  0  0  0  0  0  0
  193.2254  164.6149  127.3745 N   0  0  0  0  0  0  0  0  0  0  0  0
  192.9808  164.0716  128.6642 C   0  0  0  0  0  0  0  0  0  0  0  0
  193.8549  164.3235  129.7178 C   0  0  0  0  0  0  0  0  0  0  0  0
  193.5150  163.8442  130.9606 C   0  0  0  0  0  0  0  0  0  0  0  0
  192.3554  163.1399  131.1726 C   0  0  0  0  0  0  0  0  0  0  0  0
  191.8060  162.6098  132.2695 N   0  0  0  0  0  0  0  0  0  0  0  0
  190.6095  162.0196  131.9855 C   0  0  0  0  0  0  0  0  0  0  0  0
  190.4075  162.1871  130.6542 C   0  0  0  0  0  0  0  0  0  0  0  0
  191.4756  162.8799  130.1259 C   0  0  0  0  0  0  0  0  0  0  0  0
  191.8182  163.3595  128.8840 C   0  0  0  0  0  0  0  0  0  0  0  0
  189.7979  161.4167  133.0302 C   0  0  0  0  0  0  0  0  0  0  0  0
  189.7116  160.1436  132.9969 O   0  0  0  0  0  0  0  0  0  0  0  0
  189.1273  162.0819  134.0256 N   0  0  0  0  0  0  0  0  0  0  0  0
  188.9309  163.5478  134.2995 C   0  0  0  0  0  0  0  0  0  0  0  0
  189.5197  163.3629  135.7636 C   0  0  1  0  0  0  0  0  0  0  0  0
  190.1750  164.5069  136.2267 C   0  0  0  0  0  0  0  0  0  0  0  0
  191.6966  164.2004  137.0659 Cl  0  0  0  0  0  0  0  0  0  0  0  0
  188.5226  162.4510  136.2301 C   0  0  0  0  0  0  0  0  0  0  0  0
  187.7752  162.1964  137.3679 C   0  0  0  0  0  0  0  0  0  0  0  0
  187.5677  162.9095  138.5171 C   0  0  0  0  0  0  0  0  0  0  0  0
  188.0700  164.2373  138.9021 C   0  0  0  0  0  0  0  0  0  0  0  0
  186.6612  162.1398  139.2774 C   0  0  0  0  0  0  0  0  0  0  0  0
  186.3620  161.0450  138.5966 N   0  0  0  0  0  0  0  0  0  0  0  0
  187.0247  161.0278  137.3994 C   0  0  0  0  0  0  0  0  0  0  0  0
  186.9623  160.1031  136.3782 C   0  0  0  0  0  0  0  0  0  0  0  0
  186.2019  158.9717  136.4827 O   0  0  0  0  0  0  0  0  0  0  0  0
  187.6978  160.3689  135.2499 C   0  0  0  0  0  0  0  0  0  0  0  0
  188.4533  161.5036  135.1665 C   0  0  0  0  0  0  0  0  0  0  0  0
  195.6268  163.1108  123.3635 C   0  0  0  0  0  0  0  0  0  0  0  0
  195.6063  162.4130  122.1388 C   0  0  0  0  0  0  0  0  0  0  0  0
  194.4359  162.0490  121.5305 C   0  0  0  0  0  0  0  0  0  0  0  0
  194.1328  161.3996  120.4032 N   0  0  0  0  0  0  0  0  0  0  0  0
  1  2  1  0
  2  3  2  0
  3  4  1  0
  4  5  1  0
  5  6  2  0
  6  7  1  0
  6  8  1  0
  8  9  2  0
  9 10  1  0
 10 11  1  0
 11 12  1  0
 12 13  1  1
 13 14  1  0
 12 15  1  0
 15 16  2  0
 10 17  1  0
 17 18  2  0
 17 19  1  0
 19 20  2  0
 20 21  1  0
 21 22  2  0
 22 23  1  0
 23 24  1  0
 24 25  1  0
 25 26  2  0
 25 27  1  0
 27 28  1  0
 28 29  2  0
 29 30  1  0
 30 31  2  0
 31 32  1  0
 32 33  1  0
 33 34  2  0
 34 35  1  0
 35 36  2  0
 33 37  1  0
 37 38  2  0
 37 39  1  0
 39 40  1  0
 40 41  1  0
 41 42  1  1
 42 43  1  0
 41 44  1  0
 44 45  2  0
 45 46  1  0
 46 47  1  0
 46 48  2  0
 48 49  1  0
 49 50  1  0
 50 51  2  0
 51 52  1  0
 51 53  1  0
 53 54  2  0
 23 55  2  0
 55 56  1  0
 56 57  2  0
 57 58  1  0
 16  2  1  0
 58 19  1  0
 16  5  1  0
 57 21  1  0
 15  9  1  0
 36 28  1  0
 54 39  1  0
 35 31  1  0
 54 44  1  0
 50 45  1  0
M  END
$$$$
