
     RDKit          3D

 58 67  0  0  0  0  0  0  0  0999 V2000
  194.2249  170.4409  118.4395 C   0  0  0  0  0  0  0  0  0  0  0  0
  192.7306  170.4784  118.4564 C   0  0  0  0  0  0  0  0  0  0  0  0
  191.9405  171.5881  118.2405 C   0  0  0  0  0  0  0  0  0  0  0  0
  190.6693  171.1660  118.3537 N   0  0  0  0  0  0  0  0  0  0  0  0
  190.6118  169.8622  118.6269 C   0  0  0  0  0  0  0  0  0  0  0  0
  189.5267  169.0303  118.8183 C   0  0  0  0  0  0  0  0  0  0  0  0
  188.2424  169.5344  118.7400 O   0  0  0  0  0  0  0  0  0  0  0  0
  189.7457  167.7154  119.0831 C   0  0  0  0  0  0  0  0  0  0  0  0
  191.0520  167.2262  119.1582 C   0  0  0  0  0  0  0  0  0  0  0  0
  191.5138  165.9138  119.4106 N   0  0  0  0  0  0  0  0  0  0  0  0
  192.8742  166.0637  119.9373 C   0  0  0  0  0  0  0  0  0  0  0  0
  193.3711  167.2405  119.1138 C   0  0  1  0  0  0  0  0  0  0  0  0
  193.8079  166.6901  117.7782 C   0  0  0  0  0  0  0  0  0  0  0  0
  195.4874  167.1897  117.4635 Cl  0  0  0  0  0  0  0  0  0  0  0  0
  192.1321  168.0771  118.9636 C   0  0  0  0  0  0  0  0  0  0  0  0
  191.9160  169.4090  118.6954 C   0  0  0  0  0  0  0  0  0  0  0  0
  190.8403  164.6823  119.2162 C   0  0  0  0  0  0  0  0  0  0  0  0
  190.1351  164.5451  118.1882 O   0  0  0  0  0  0  0  0  0  0  0  0
  190.9383  163.5818  120.1594 C   0  0  0  0  0  0  0  0  0  0  0  0
  190.7373  163.7112  121.5362 C   0  0  0  0  0  0  0  0  0  0  0  0
  190.9034  162.4645  122.1500 C   0  0  0  0  0  0  0  0  0  0  0  0
  190.8226  162.0268  123.4403 C   0  0  0  0  0  0  0  0  0  0  0  0
  191.0367  160.6975  123.7923 C   0  0  0  0  0  0  0  0  0  0  0  0
  190.9641  160.3229  125.1722 N   0  0  0  0  0  0  0  0  0  0  0  0
  189.8135  160.3914  125.9413 C   0  0  0  0  0  0  0  0  0  0  0  0
  188.9576  161.3219  125.8247 O   0  0  0  0  0  0  0  0  0  0  0  0
  189.4694  159.4187  126.9422 N   0  0  0  0  0  0  0  0  0  0  0  0
  188.7461  159.8698  128.0787 C   0  0  0  0  0  0  0  0  0  0  0  0
  189.3993  160.1200  129.2822 C   0  0  0  0  0  0  0  0  0  0  0  0
  188.6585  160.6399  130.3168 C   0  0  0  0  0  0  0  0  0  0  0  0
  187.3188  160.9102  130.1838 C   0  0  0  0  0  0  0  0  0  0  0  0
  186.4136  161.4326  131.0167 N   0  0  0  0  0  0  0  0  0  0  0  0
  185.1935  161.5372  130.4161 C   0  0  0  0  0  0  0  0  0  0  0  0
  185.3454  161.0563  129.1563 C   0  0  0  0  0  0  0  0  0  0  0  0
  186.6550  160.6614  128.9860 C   0  0  0  0  0  0  0  0  0  0  0  0
  187.3978  160.1406  127.9531 C   0  0  0  0  0  0  0  0  0  0  0  0
  184.0584  162.1249  131.1087 C   0  0  0  0  0  0  0  0  0  0  0  0
  184.0346  163.4006  131.1464 O   0  0  0  0  0  0  0  0  0  0  0  0
  183.0340  161.4434  131.7163 N   0  0  0  0  0  0  0  0  0  0  0  0
  181.5393  161.5500  131.5862 C   0  0  0  0  0  0  0  0  0  0  0  0
  181.4085  161.7664  133.1548 C   0  0  1  0  0  0  0  0  0  0  0  0
  180.3152  162.5665  133.4967 C   0  0  0  0  0  0  0  0  0  0  0  0
  179.5061  162.1130  134.9978 Cl  0  0  0  0  0  0  0  0  0  0  0  0
  181.9627  160.5072  133.5432 C   0  0  0  0  0  0  0  0  0  0  0  0
  181.7530  159.5047  134.4754 C   0  0  0  0  0  0  0  0  0  0  0  0
  180.7222  159.2429  135.3362 C   0  0  0  0  0  0  0  0  0  0  0  0
  179.4502  159.9575  135.5232 C   0  0  0  0  0  0  0  0  0  0  0  0
  181.0760  158.0437  135.9912 C   0  0  0  0  0  0  0  0  0  0  0  0
  182.2467  157.6378  135.5260 N   0  0  0  0  0  0  0  0  0  0  0  0
  182.7146  158.5074  134.5785 C   0  0  0  0  0  0  0  0  0  0  0  0
  183.8616  158.4363  133.8163 C   0  0  0  0  0  0  0  0  0  0  0  0
  184.7659  157.4235  133.9767 O   0  0  0  0  0  0  0  0  0  0  0  0
  184.0560  159.4283  132.8874 C   0  0  0  0  0  0  0  0  0  0  0  0
  183.1419  160.4328  132.7446 C   0  0  0  0  0  0  0  0  0  0  0  0
  191.3349  159.8430  122.7719 C   0  0  0  0  0  0  0  0  0  0  0  0
  191.4181  160.2970  121.4399 C   0  0  0  0  0  0  0  0  0  0  0  0
  191.2058  161.6066  121.1050 C   0  0  0  0  0  0  0  0  0  0  0  0
  191.2179  162.2901  119.9573 N   0  0  0  0  0  0  0  0  0  0  0  0
  1  2  1  0
  2  3  2  0
  3  4  1  0
  4  5  1  0
  5  6  2  0
  6  7  1  0
  6  8  1  0
  8  9  2  0
  9 10  1  0
 10 11  1  0
 11 12  1  0
 12 13  1  6
 13 14  1  0
 12 15  1  0
 15 16  2  0
 10 17  1  0
 17 18  2  0
 17 19  1  0
 19 20  2  0
 20 21  1  0
 21 22  2  0
 22 23  1  0
 23 24  1  0
 24 25  1  0
 25 26  2  0
 25 27  1  0
 27 28  1  0
 28 29  2  0
 29 30  1  0
 30 31  2  0
 31 32  1  0
 32 33  1  0
 33 34  2  0
 34 35  1  0
 35 36  2  0
 33 37  1  0
 37 38  2  0
 37 39  1  0
 39 40  1  0
 40 41  1  0
 41 42  1  6
 42 43  1  0
 41 44  1  0
 44 45  2  0
 45 46  1  0
 46 47  1  0
 46 48  2  0
 48 49  1  0
 49 50  1  0
 50 51  2  0
 51 52  1  0
 51 53  1  0
 53 54  2  0
 23 55  2  0
 55 56  1  0
 56 57  2  0
 57 58  1  0
 16  2  1  0
 58 19  1  0
 16  5  1  0
 57 21  1  0
 15  9  1  0
 36 28  1  0
 54 39  1  0
 35 31  1  0
 54 44  1  0
 50 45  1  0
M  END
$$$$
