
     RDKit          3D

 58 67  0  0  0  0  0  0  0  0999 V2000
  192.5069  167.0188  135.7490 C   0  0  0  0  0  0  0  0  0  0  0  0
  192.7885  166.2702  134.4861 C   0  0  0  0  0  0  0  0  0  0  0  0
  193.0498  164.9202  134.3797 C   0  0  0  0  0  0  0  0  0  0  0  0
  193.2473  164.6826  133.0715 N   0  0  0  0  0  0  0  0  0  0  0  0
  193.1265  165.7978  132.3506 C   0  0  0  0  0  0  0  0  0  0  0  0
  193.2441  166.0070  130.9910 C   0  0  0  0  0  0  0  0  0  0  0  0
  193.5390  164.9521  130.1485 O   0  0  0  0  0  0  0  0  0  0  0  0
  193.0650  167.2623  130.5016 C   0  0  0  0  0  0  0  0  0  0  0  0
  192.7677  168.3148  131.3706 C   0  0  0  0  0  0  0  0  0  0  0  0
  192.5364  169.6815  131.0910 N   0  0  0  0  0  0  0  0  0  0  0  0
  192.8441  170.4004  132.3316 C   0  0  0  0  0  0  0  0  0  0  0  0
  192.3353  169.4120  133.3680 C   0  0  1  0  0  0  0  0  0  0  0  0
  190.8425  169.6095  133.4692 C   0  0  0  0  0  0  0  0  0  0  0  0
  190.5039  170.8890  134.6599 Cl  0  0  0  0  0  0  0  0  0  0  0  0
  192.6537  168.0867  132.7357 C   0  0  0  0  0  0  0  0  0  0  0  0
  192.8341  166.8181  133.2363 C   0  0  0  0  0  0  0  0  0  0  0  0
  192.1027  170.2798  129.8820 C   0  0  0  0  0  0  0  0  0  0  0  0
  191.1504  169.7481  129.2626 O   0  0  0  0  0  0  0  0  0  0  0  0
  192.7182  171.4787  129.3398 C   0  0  0  0  0  0  0  0  0  0  0  0
  192.2473  172.7737  129.5726 C   0  0  0  0  0  0  0  0  0  0  0  0
  193.0675  173.6934  128.9092 C   0  0  0  0  0  0  0  0  0  0  0  0
  193.0684  175.0540  128.8004 C   0  0  0  0  0  0  0  0  0  0  0  0
  194.0245  175.7428  128.0602 C   0  0  0  0  0  0  0  0  0  0  0  0
  193.9392  177.1692  127.9695 N   0  0  0  0  0  0  0  0  0  0  0  0
  194.1287  178.0329  129.0364 C   0  0  0  0  0  0  0  0  0  0  0  0
  193.7790  177.7526  130.2243 O   0  0  0  0  0  0  0  0  0  0  0  0
  194.7416  179.3270  128.9100 N   0  0  0  0  0  0  0  0  0  0  0  0
  194.0176  180.4494  129.3940 C   0  0  0  0  0  0  0  0  0  0  0  0
  193.9284  181.6156  128.6392 C   0  0  0  0  0  0  0  0  0  0  0  0
  193.1393  182.6323  129.1223 C   0  0  0  0  0  0  0  0  0  0  0  0
  192.4547  182.5170  130.3070 C   0  0  0  0  0  0  0  0  0  0  0  0
  191.6208  183.3368  130.9540 N   0  0  0  0  0  0  0  0  0  0  0  0
  191.1572  182.7631  132.1014 C   0  0  0  0  0  0  0  0  0  0  0  0
  191.7298  181.5349  132.1727 C   0  0  0  0  0  0  0  0  0  0  0  0
  192.5388  181.3568  131.0711 C   0  0  0  0  0  0  0  0  0  0  0  0
  193.3292  180.3418  130.5864 C   0  0  0  0  0  0  0  0  0  0  0  0
  190.1944  183.4446  132.9511 C   0  0  0  0  0  0  0  0  0  0  0  0
  190.6019  184.5284  133.4885 O   0  0  0  0  0  0  0  0  0  0  0  0
  188.9142  183.0321  133.2238 N   0  0  0  0  0  0  0  0  0  0  0  0
  187.8228  182.4914  132.3412 C   0  0  0  0  0  0  0  0  0  0  0  0
  186.8334  183.6236  132.8550 C   0  0  1  0  0  0  0  0  0  0  0  0
  185.8961  183.9961  131.8880 C   0  0  0  0  0  0  0  0  0  0  0  0
  184.8599  182.6867  131.3177 Cl  0  0  0  0  0  0  0  0  0  0  0  0
  186.8397  183.2379  134.2315 C   0  0  0  0  0  0  0  0  0  0  0  0
  185.9628  183.1127  135.2960 C   0  0  0  0  0  0  0  0  0  0  0  0
  184.5974  183.1439  135.3784 C   0  0  0  0  0  0  0  0  0  0  0  0
  183.5954  183.2946  134.3121 C   0  0  0  0  0  0  0  0  0  0  0  0
  184.2980  182.9034  136.7366 C   0  0  0  0  0  0  0  0  0  0  0  0
  185.4332  182.7387  137.3966 N   0  0  0  0  0  0  0  0  0  0  0  0
  186.5022  182.8562  136.5502 C   0  0  0  0  0  0  0  0  0  0  0  0
  187.8477  182.7099  136.8149 C   0  0  0  0  0  0  0  0  0  0  0  0
  188.3055  182.4607  138.0789 O   0  0  0  0  0  0  0  0  0  0  0  0
  188.7088  182.8248  135.7519 C   0  0  0  0  0  0  0  0  0  0  0  0
  188.2315  183.0766  134.4974 C   0  0  0  0  0  0  0  0  0  0  0  0
  194.9722  174.9822  127.4409 C   0  0  0  0  0  0  0  0  0  0  0  0
  194.9695  173.5771  127.5542 C   0  0  0  0  0  0  0  0  0  0  0  0
  194.0244  172.9098  128.2848 C   0  0  0  0  0  0  0  0  0  0  0  0
  193.7920  171.6227  128.5564 N   0  0  0  0  0  0  0  0  0  0  0  0
  1  2  1  0
  2  3  2  0
  3  4  1  0
  4  5  1  0
  5  6  2  0
  6  7  1  0
  6  8  1  0
  8  9  2  0
  9 10  1  0
 10 11  1  0
 11 12  1  0
 12 13  1  6
 13 14  1  0
 12 15  1  0
 15 16  2  0
 10 17  1  0
 17 18  2  0
 17 19  1  0
 19 20  2  0
 20 21  1  0
 21 22  2  0
 22 23  1  0
 23 24  1  0
 24 25  1  0
 25 26  2  0
 25 27  1  0
 27 28  1  0
 28 29  2  0
 29 30  1  0
 30 31  2  0
 31 32  1  0
 32 33  1  0
 33 34  2  0
 34 35  1  0
 35 36  2  0
 33 37  1  0
 37 38  2  0
 37 39  1  0
 39 40  1  0
 40 41  1  0
 41 42  1  6
 42 43  1  0
 41 44  1  0
 44 45  2  0
 45 46  1  0
 46 47  1  0
 46 48  2  0
 48 49  1  0
 49 50  1  0
 50 51  2  0
 51 52  1  0
 51 53  1  0
 53 54  2  0
 23 55  2  0
 55 56  1  0
 56 57  2  0
 57 58  1  0
 16  2  1  0
 58 19  1  0
 16  5  1  0
 57 21  1  0
 15  9  1  0
 36 28  1  0
 54 39  1  0
 35 31  1  0
 54 44  1  0
 50 45  1  0
M  END
$$$$
