
     RDKit          3D

 58 67  0  0  0  0  0  0  0  0999 V2000
  130.6495  141.9026  118.7951 C   0  0  0  0  0  0  0  0  0  0  0  0
  130.1380  140.9904  117.7271 C   0  0  0  0  0  0  0  0  0  0  0  0
  130.1301  141.2458  116.3717 C   0  0  0  0  0  0  0  0  0  0  0  0
  129.5808  140.1638  115.7935 N   0  0  0  0  0  0  0  0  0  0  0  0
  129.2436  139.2459  116.7000 C   0  0  0  0  0  0  0  0  0  0  0  0
  128.6635  138.0023  116.5480 C   0  0  0  0  0  0  0  0  0  0  0  0
  128.3333  137.5389  115.2887 O   0  0  0  0  0  0  0  0  0  0  0  0
  128.4257  137.2488  117.6538 C   0  0  0  0  0  0  0  0  0  0  0  0
  128.7670  137.7362  118.9177 C   0  0  0  0  0  0  0  0  0  0  0  0
  128.6218  137.1347  120.1891 N   0  0  0  0  0  0  0  0  0  0  0  0
  128.5854  138.2403  121.1519 C   0  0  0  0  0  0  0  0  0  0  0  0
  129.5812  139.2003  120.5220 C   0  0  1  0  0  0  0  0  0  0  0  0
  130.9589  138.7277  120.9175 C   0  0  0  0  0  0  0  0  0  0  0  0
  131.1729  138.9586  122.6697 Cl  0  0  0  0  0  0  0  0  0  0  0  0
  129.3493  138.9896  119.0525 C   0  0  0  0  0  0  0  0  0  0  0  0
  129.5920  139.7566  117.9365 C   0  0  0  0  0  0  0  0  0  0  0  0
  128.5233  135.7593  120.5152 C   0  0  0  0  0  0  0  0  0  0  0  0
  128.0208  134.9813  119.6694 O   0  0  0  0  0  0  0  0  0  0  0  0
  128.9813  135.2235  121.7853 C   0  0  0  0  0  0  0  0  0  0  0  0
  128.2262  135.2442  122.9610 C   0  0  0  0  0  0  0  0  0  0  0  0
  128.9577  134.6480  123.9945 C   0  0  0  0  0  0  0  0  0  0  0  0
  128.7066  134.4064  125.3142 C   0  0  0  0  0  0  0  0  0  0  0  0
  129.6282  133.7780  126.1464 C   0  0  0  0  0  0  0  0  0  0  0  0
  129.3020  133.5882  127.5275 N   0  0  0  0  0  0  0  0  0  0  0  0
  129.8147  134.3521  128.5638 C   0  0  0  0  0  0  0  0  0  0  0  0
  130.5681  135.3567  128.3760 O   0  0  0  0  0  0  0  0  0  0  0  0
  129.5443  134.0903  129.9511 N   0  0  0  0  0  0  0  0  0  0  0  0
  129.9152  135.0858  130.8943 C   0  0  0  0  0  0  0  0  0  0  0  0
  128.9524  135.9052  131.4770 C   0  0  0  0  0  0  0  0  0  0  0  0
  129.3644  136.7869  132.4478 C   0  0  0  0  0  0  0  0  0  0  0  0
  130.6773  136.8683  132.8419 C   0  0  0  0  0  0  0  0  0  0  0  0
  131.3015  137.6076  133.7637 N   0  0  0  0  0  0  0  0  0  0  0  0
  132.6323  137.3123  133.8141 C   0  0  0  0  0  0  0  0  0  0  0  0
  132.8455  136.3502  132.8813 C   0  0  0  0  0  0  0  0  0  0  0  0
  131.6486  136.0559  132.2642 C   0  0  0  0  0  0  0  0  0  0  0  0
  131.2343  135.1756  131.2930 C   0  0  0  0  0  0  0  0  0  0  0  0
  133.5124  137.9537  134.7771 C   0  0  0  0  0  0  0  0  0  0  0  0
  134.4518  137.2232  135.2389 O   0  0  0  0  0  0  0  0  0  0  0  0
  133.4218  139.2469  135.2272 N   0  0  0  0  0  0  0  0  0  0  0  0
  133.9723  139.9264  136.4509 C   0  0  0  0  0  0  0  0  0  0  0  0
  132.5129  140.4119  136.8496 C   0  0  1  0  0  0  0  0  0  0  0  0
  132.3439  140.5241  138.2322 C   0  0  0  0  0  0  0  0  0  0  0  0
  133.7745  140.1314  139.1874 Cl  0  0  0  0  0  0  0  0  0  0  0  0
  132.2784  141.2077  135.6854 C   0  0  0  0  0  0  0  0  0  0  0  0
  131.7147  142.4228  135.3341 C   0  0  0  0  0  0  0  0  0  0  0  0
  131.2943  143.4955  136.0722 C   0  0  0  0  0  0  0  0  0  0  0  0
  131.3428  143.7118  137.5264 C   0  0  0  0  0  0  0  0  0  0  0  0
  130.8607  144.4525  135.1297 C   0  0  0  0  0  0  0  0  0  0  0  0
  131.0283  143.9550  133.9148 N   0  0  0  0  0  0  0  0  0  0  0  0
  131.5586  142.6951  133.9808 C   0  0  0  0  0  0  0  0  0  0  0  0
  131.9298  141.8476  132.9582 C   0  0  0  0  0  0  0  0  0  0  0  0
  131.7420  142.1837  131.6463 O   0  0  0  0  0  0  0  0  0  0  0  0
  132.4978  140.6499  133.3154 C   0  0  0  0  0  0  0  0  0  0  0  0
  132.6743  140.3319  134.6318 C   0  0  0  0  0  0  0  0  0  0  0  0
  130.8093  133.4111  125.5715 C   0  0  0  0  0  0  0  0  0  0  0  0
  131.0669  133.6617  124.2084 C   0  0  0  0  0  0  0  0  0  0  0  0
  130.1535  134.2805  123.3990 C   0  0  0  0  0  0  0  0  0  0  0  0
  130.1347  134.6304  122.1099 N   0  0  0  0  0  0  0  0  0  0  0  0
  1  2  1  0
  2  3  2  0
  3  4  1  0
  4  5  1  0
  5  6  2  0
  6  7  1  0
  6  8  1  0
  8  9  2  0
  9 10  1  0
 10 11  1  0
 11 12  1  0
 12 13  1  6
 13 14  1  0
 12 15  1  0
 15 16  2  0
 10 17  1  0
 17 18  2  0
 17 19  1  0
 19 20  2  0
 20 21  1  0
 21 22  2  0
 22 23  1  0
 23 24  1  0
 24 25  1  0
 25 26  2  0
 25 27  1  0
 27 28  1  0
 28 29  2  0
 29 30  1  0
 30 31  2  0
 31 32  1  0
 32 33  1  0
 33 34  2  0
 34 35  1  0
 35 36  2  0
 33 37  1  0
 37 38  2  0
 37 39  1  0
 39 40  1  0
 40 41  1  0
 41 42  1  1
 42 43  1  0
 41 44  1  0
 44 45  2  0
 45 46  1  0
 46 47  1  0
 46 48  2  0
 48 49  1  0
 49 50  1  0
 50 51  2  0
 51 52  1  0
 51 53  1  0
 53 54  2  0
 23 55  2  0
 55 56  1  0
 56 57  2  0
 57 58  1  0
 16  2  1  0
 58 19  1  0
 16  5  1  0
 57 21  1  0
 15  9  1  0
 36 28  1  0
 54 39  1  0
 35 31  1  0
 54 44  1  0
 50 45  1  0
M  END
$$$$
