
     RDKit          3D

 58 67  0  0  0  0  0  0  0  0999 V2000
  183.8940  176.4553  118.9067 C   0  0  0  0  0  0  0  0  0  0  0  0
  184.3516  175.8340  117.6264 C   0  0  0  0  0  0  0  0  0  0  0  0
  184.1107  176.3133  116.3559 C   0  0  0  0  0  0  0  0  0  0  0  0
  184.6973  175.4448  115.5143 N   0  0  0  0  0  0  0  0  0  0  0  0
  185.2910  174.4512  116.1762 C   0  0  0  0  0  0  0  0  0  0  0  0
  186.0027  173.3619  115.7145 C   0  0  0  0  0  0  0  0  0  0  0  0
  186.1836  173.1746  114.3574 O   0  0  0  0  0  0  0  0  0  0  0  0
  186.5181  172.4842  116.6152 C   0  0  0  0  0  0  0  0  0  0  0  0
  186.3234  172.6920  117.9828 C   0  0  0  0  0  0  0  0  0  0  0  0
  186.7663  171.9270  119.0865 N   0  0  0  0  0  0  0  0  0  0  0  0
  185.8426  172.2360  120.1828 C   0  0  0  0  0  0  0  0  0  0  0  0
  185.5834  173.7122  119.9302 C   0  0  1  0  0  0  0  0  0  0  0  0
  186.7464  174.4710  120.5212 C   0  0  0  0  0  0  0  0  0  0  0  0
  186.5197  174.6049  122.2819 Cl  0  0  0  0  0  0  0  0  0  0  0  0
  185.6045  173.7928  118.4299 C   0  0  0  0  0  0  0  0  0  0  0  0
  185.0805  174.6841  117.5225 C   0  0  0  0  0  0  0  0  0  0  0  0
  187.8629  171.0330  119.1650 C   0  0  0  0  0  0  0  0  0  0  0  0
  188.8237  171.1985  118.3759 O   0  0  0  0  0  0  0  0  0  0  0  0
  187.9121  169.9402  120.1207 C   0  0  0  0  0  0  0  0  0  0  0  0
  187.0629  168.8310  120.0853 C   0  0  0  0  0  0  0  0  0  0  0  0
  187.3778  167.9698  121.1426 C   0  0  0  0  0  0  0  0  0  0  0  0
  186.8800  166.7721  121.5678 C   0  0  0  0  0  0  0  0  0  0  0  0
  187.3879  166.1048  122.6783 C   0  0  0  0  0  0  0  0  0  0  0  0
  186.7908  164.8667  123.0792 N   0  0  0  0  0  0  0  0  0  0  0  0
  187.3772  163.6234  122.9046 C   0  0  0  0  0  0  0  0  0  0  0  0
  188.1535  163.3542  121.9367 O   0  0  0  0  0  0  0  0  0  0  0  0
  187.1719  162.5171  123.7991 N   0  0  0  0  0  0  0  0  0  0  0  0
  187.1354  161.2129  123.2369 C   0  0  0  0  0  0  0  0  0  0  0  0
  185.9213  160.5676  123.0195 C   0  0  0  0  0  0  0  0  0  0  0  0
  185.9492  159.3457  122.3903 C   0  0  0  0  0  0  0  0  0  0  0  0
  187.1263  158.7679  121.9828 C   0  0  0  0  0  0  0  0  0  0  0  0
  187.4005  157.6286  121.3401 N   0  0  0  0  0  0  0  0  0  0  0  0
  188.7408  157.4944  121.1250 C   0  0  0  0  0  0  0  0  0  0  0  0
  189.3256  158.5959  121.6596 C   0  0  0  0  0  0  0  0  0  0  0  0
  188.3461  159.4028  122.1976 C   0  0  0  0  0  0  0  0  0  0  0  0
  188.3157  160.6242  122.8277 C   0  0  0  0  0  0  0  0  0  0  0  0
  189.2787  156.3566  120.3973 C   0  0  0  0  0  0  0  0  0  0  0  0
  188.6431  156.0260  119.3409 O   0  0  0  0  0  0  0  0  0  0  0  0
  190.3842  155.6197  120.7409 N   0  0  0  0  0  0  0  0  0  0  0  0
  191.4577  154.9709  119.9108 C   0  0  0  0  0  0  0  0  0  0  0  0
  191.1600  153.5716  120.6022 C   0  0  1  0  0  0  0  0  0  0  0  0
  191.4106  152.4900  119.7538 C   0  0  0  0  0  0  0  0  0  0  0  0
  193.0443  152.4326  119.0897 Cl  0  0  0  0  0  0  0  0  0  0  0  0
  191.4884  153.9713  121.9349 C   0  0  0  0  0  0  0  0  0  0  0  0
  192.1358  153.4776  123.0551 C   0  0  0  0  0  0  0  0  0  0  0  0
  192.9353  152.3855  123.2553 C   0  0  0  0  0  0  0  0  0  0  0  0
  193.4000  151.3730  122.2947 C   0  0  0  0  0  0  0  0  0  0  0  0
  193.3318  152.4539  124.6082 C   0  0  0  0  0  0  0  0  0  0  0  0
  192.7907  153.5318  125.1530 N   0  0  0  0  0  0  0  0  0  0  0  0
  192.0376  154.2086  124.2323 C   0  0  0  0  0  0  0  0  0  0  0  0
  191.3480  155.3952  124.3684 C   0  0  0  0  0  0  0  0  0  0  0  0
  191.2934  156.0582  125.5628 O   0  0  0  0  0  0  0  0  0  0  0  0
  190.7184  155.8827  123.2501 C   0  0  0  0  0  0  0  0  0  0  0  0
  190.7829  155.2037  122.0669 C   0  0  0  0  0  0  0  0  0  0  0  0
  188.4202  166.7138  123.3291 C   0  0  0  0  0  0  0  0  0  0  0  0
  188.9328  167.9509  122.8886 C   0  0  0  0  0  0  0  0  0  0  0  0
  188.4257  168.5987  121.7952 C   0  0  0  0  0  0  0  0  0  0  0  0
  188.7130  169.7456  121.1735 N   0  0  0  0  0  0  0  0  0  0  0  0
  1  2  1  0
  2  3  2  0
  3  4  1  0
  4  5  1  0
  5  6  2  0
  6  7  1  0
  6  8  1  0
  8  9  2  0
  9 10  1  0
 10 11  1  0
 11 12  1  0
 12 13  1  1
 13 14  1  0
 12 15  1  0
 15 16  2  0
 10 17  1  0
 17 18  2  0
 17 19  1  0
 19 20  2  0
 20 21  1  0
 21 22  2  0
 22 23  1  0
 23 24  1  0
 24 25  1  0
 25 26  2  0
 25 27  1  0
 27 28  1  0
 28 29  2  0
 29 30  1  0
 30 31  2  0
 31 32  1  0
 32 33  1  0
 33 34  2  0
 34 35  1  0
 35 36  2  0
 33 37  1  0
 37 38  2  0
 37 39  1  0
 39 40  1  0
 40 41  1  0
 41 42  1  6
 42 43  1  0
 41 44  1  0
 44 45  2  0
 45 46  1  0
 46 47  1  0
 46 48  2  0
 48 49  1  0
 49 50  1  0
 50 51  2  0
 51 52  1  0
 51 53  1  0
 53 54  2  0
 23 55  2  0
 55 56  1  0
 56 57  2  0
 57 58  1  0
 16  2  1  0
 58 19  1  0
 16  5  1  0
 57 21  1  0
 15  9  1  0
 36 28  1  0
 54 39  1  0
 35 31  1  0
 54 44  1  0
 50 45  1  0
M  END
$$$$
