
     RDKit          3D

 58 67  0  0  0  0  0  0  0  0999 V2000
  201.1815  134.8084  137.5947 C   0  0  0  0  0  0  0  0  0  0  0  0
  200.4317  133.5260  137.4277 C   0  0  0  0  0  0  0  0  0  0  0  0
  199.0625  133.3884  137.3349 C   0  0  0  0  0  0  0  0  0  0  0  0
  198.8304  132.0714  137.1997 N   0  0  0  0  0  0  0  0  0  0  0  0
  199.9670  131.3741  137.2016 C   0  0  0  0  0  0  0  0  0  0  0  0
  200.1894  130.0165  137.0856 C   0  0  0  0  0  0  0  0  0  0  0  0
  199.1244  129.1474  136.9444 O   0  0  0  0  0  0  0  0  0  0  0  0
  201.4677  129.5556  137.1124 C   0  0  0  0  0  0  0  0  0  0  0  0
  202.5301  130.4512  137.2561 C   0  0  0  0  0  0  0  0  0  0  0  0
  203.9217  130.2047  137.3026 N   0  0  0  0  0  0  0  0  0  0  0  0
  204.5053  131.3441  138.0179 C   0  0  0  0  0  0  0  0  0  0  0  0
  203.6288  132.4781  137.5120 C   0  0  1  0  0  0  0  0  0  0  0  0
  204.1671  132.8819  136.1612 C   0  0  0  0  0  0  0  0  0  0  0  0
  205.9009  133.2567  136.3139 Cl  0  0  0  0  0  0  0  0  0  0  0  0
  202.2883  131.8138  137.3722 C   0  0  0  0  0  0  0  0  0  0  0  0
  200.9963  132.2856  137.3457 C   0  0  0  0  0  0  0  0  0  0  0  0
  204.6463  129.1022  136.7855 C   0  0  0  0  0  0  0  0  0  0  0  0
  204.3571  127.9535  137.1979 O   0  0  0  0  0  0  0  0  0  0  0  0
  205.7039  129.2555  135.8017 C   0  0  0  0  0  0  0  0  0  0  0  0
  205.6422  130.1348  134.7173 C   0  0  0  0  0  0  0  0  0  0  0  0
  206.8220  130.0366  133.9708 C   0  0  0  0  0  0  0  0  0  0  0  0
  207.2819  130.6523  132.8428 C   0  0  0  0  0  0  0  0  0  0  0  0
  208.5274  130.3665  132.2916 C   0  0  0  0  0  0  0  0  0  0  0  0
  208.9252  131.0330  131.0885 N   0  0  0  0  0  0  0  0  0  0  0  0
  209.2070  132.3869  131.0015 C   0  0  0  0  0  0  0  0  0  0  0  0
  208.6287  133.2615  131.7176 O   0  0  0  0  0  0  0  0  0  0  0  0
  210.1812  132.9380  130.0996 N   0  0  0  0  0  0  0  0  0  0  0  0
  209.8499  134.1460  129.4293 C   0  0  0  0  0  0  0  0  0  0  0  0
  209.5244  134.1404  128.0759 C   0  0  0  0  0  0  0  0  0  0  0  0
  209.1262  135.3273  127.5081 C   0  0  0  0  0  0  0  0  0  0  0  0
  209.0460  136.4879  128.2375 C   0  0  0  0  0  0  0  0  0  0  0  0
  208.6663  137.7301  127.9232 N   0  0  0  0  0  0  0  0  0  0  0  0
  208.7277  138.5538  129.0088 C   0  0  0  0  0  0  0  0  0  0  0  0
  209.1675  137.7919  130.0419 C   0  0  0  0  0  0  0  0  0  0  0  0
  209.3718  136.5056  129.5905 C   0  0  0  0  0  0  0  0  0  0  0  0
  209.7705  135.3177  130.1559 C   0  0  0  0  0  0  0  0  0  0  0  0
  208.3140  139.9450  128.9257 C   0  0  0  0  0  0  0  0  0  0  0  0
  207.4023  140.3000  129.7455 O   0  0  0  0  0  0  0  0  0  0  0  0
  208.8041  140.8894  128.0590 N   0  0  0  0  0  0  0  0  0  0  0  0
  208.1872  142.1267  127.4667 C   0  0  0  0  0  0  0  0  0  0  0  0
  208.5223  141.6052  126.0038 C   0  0  1  0  0  0  0  0  0  0  0  0
  207.5960  142.0422  125.0532 C   0  0  0  0  0  0  0  0  0  0  0  0
  206.0888  142.6703  125.7220 Cl  0  0  0  0  0  0  0  0  0  0  0  0
  209.9427  141.5698  126.1610 C   0  0  0  0  0  0  0  0  0  0  0  0
  211.0910  141.8695  125.4471 C   0  0  0  0  0  0  0  0  0  0  0  0
  211.3026  142.5472  124.2775 C   0  0  0  0  0  0  0  0  0  0  0  0
  210.3384  143.2231  123.3960 C   0  0  0  0  0  0  0  0  0  0  0  0
  212.7028  142.5608  124.1001 C   0  0  0  0  0  0  0  0  0  0  0  0
  213.2637  141.9273  125.1178 N   0  0  0  0  0  0  0  0  0  0  0  0
  212.3087  141.4774  125.9887 C   0  0  0  0  0  0  0  0  0  0  0  0
  212.4615  140.8167  127.1894 C   0  0  0  0  0  0  0  0  0  0  0  0
  213.6952  140.4596  127.6579 O   0  0  0  0  0  0  0  0  0  0  0  0
  211.3187  140.5334  127.8955 C   0  0  0  0  0  0  0  0  0  0  0  0
  210.0954  140.8963  127.4087 C   0  0  0  0  0  0  0  0  0  0  0  0
  209.2751  129.4294  132.9420 C   0  0  0  0  0  0  0  0  0  0  0  0
  208.7982  128.7944  134.1067 C   0  0  0  0  0  0  0  0  0  0  0  0
  207.5717  129.0830  134.6402 C   0  0  0  0  0  0  0  0  0  0  0  0
  206.8907  128.6477  135.7038 N   0  0  0  0  0  0  0  0  0  0  0  0
  1  2  1  0
  2  3  2  0
  3  4  1  0
  4  5  1  0
  5  6  2  0
  6  7  1  0
  6  8  1  0
  8  9  2  0
  9 10  1  0
 10 11  1  0
 11 12  1  0
 12 13  1  6
 13 14  1  0
 12 15  1  0
 15 16  2  0
 10 17  1  0
 17 18  2  0
 17 19  1  0
 19 20  2  0
 20 21  1  0
 21 22  2  0
 22 23  1  0
 23 24  1  0
 24 25  1  0
 25 26  2  0
 25 27  1  0
 27 28  1  0
 28 29  2  0
 29 30  1  0
 30 31  2  0
 31 32  1  0
 32 33  1  0
 33 34  2  0
 34 35  1  0
 35 36  2  0
 33 37  1  0
 37 38  2  0
 37 39  1  0
 39 40  1  0
 40 41  1  0
 41 42  1  6
 42 43  1  0
 41 44  1  0
 44 45  2  0
 45 46  1  0
 46 47  1  0
 46 48  2  0
 48 49  1  0
 49 50  1  0
 50 51  2  0
 51 52  1  0
 51 53  1  0
 53 54  2  0
 23 55  2  0
 55 56  1  0
 56 57  2  0
 57 58  1  0
 16  2  1  0
 58 19  1  0
 16  5  1  0
 57 21  1  0
 15  9  1  0
 36 28  1  0
 54 39  1  0
 35 31  1  0
 54 44  1  0
 50 45  1  0
M  END
$$$$
