
     RDKit          3D

 58 67  0  0  0  0  0  0  0  0999 V2000
  152.6079  178.1459  170.1769 C   0  0  0  0  0  0  0  0  0  0  0  0
  151.4276  178.6799  169.4311 C   0  0  0  0  0  0  0  0  0  0  0  0
  150.3872  179.4101  169.9665 C   0  0  0  0  0  0  0  0  0  0  0  0
  149.5544  179.6732  168.9448 N   0  0  0  0  0  0  0  0  0  0  0  0
  150.0062  179.1546  167.8026 C   0  0  0  0  0  0  0  0  0  0  0  0
  149.4765  179.1878  166.5280 C   0  0  0  0  0  0  0  0  0  0  0  0
  148.2799  179.8365  166.2895 O   0  0  0  0  0  0  0  0  0  0  0  0
  150.1509  178.5741  165.5201 C   0  0  0  0  0  0  0  0  0  0  0  0
  151.3589  177.9236  165.7828 C   0  0  0  0  0  0  0  0  0  0  0  0
  152.2252  177.2338  164.9035 N   0  0  0  0  0  0  0  0  0  0  0  0
  152.9824  176.2983  165.7414 C   0  0  0  0  0  0  0  0  0  0  0  0
  153.1644  177.1274  167.0022 C   0  0  1  0  0  0  0  0  0  0  0  0
  154.3294  178.0544  166.7553 C   0  0  0  0  0  0  0  0  0  0  0  0
  155.3229  177.4006  165.4305 Cl  0  0  0  0  0  0  0  0  0  0  0  0
  151.8772  177.8994  167.0709 C   0  0  0  0  0  0  0  0  0  0  0  0
  151.1985  178.5189  168.0948 C   0  0  0  0  0  0  0  0  0  0  0  0
  152.3658  177.3774  163.5008 C   0  0  0  0  0  0  0  0  0  0  0  0
  153.4663  177.7765  163.0505 O   0  0  0  0  0  0  0  0  0  0  0  0
  151.2876  177.0802  162.5739 C   0  0  0  0  0  0  0  0  0  0  0  0
  151.3464  177.3284  161.1999 C   0  0  0  0  0  0  0  0  0  0  0  0
  150.1471  176.9243  160.6023 C   0  0  0  0  0  0  0  0  0  0  0  0
  149.6782  176.9347  159.3204 C   0  0  0  0  0  0  0  0  0  0  0  0
  148.4142  176.4593  158.9843 C   0  0  0  0  0  0  0  0  0  0  0  0
  147.9832  176.5330  157.6210 N   0  0  0  0  0  0  0  0  0  0  0  0
  148.8021  176.8858  156.5603 C   0  0  0  0  0  0  0  0  0  0  0  0
  149.5137  177.9373  156.5553 O   0  0  0  0  0  0  0  0  0  0  0  0
  148.9335  176.0995  155.3641 N   0  0  0  0  0  0  0  0  0  0  0  0
  148.6235  176.7250  154.1268 C   0  0  0  0  0  0  0  0  0  0  0  0
  149.6141  176.9411  153.1730 C   0  0  0  0  0  0  0  0  0  0  0  0
  149.2331  177.4683  151.9620 C   0  0  0  0  0  0  0  0  0  0  0  0
  147.9236  177.7757  151.6860 C   0  0  0  0  0  0  0  0  0  0  0  0
  147.3172  178.2587  150.5974 N   0  0  0  0  0  0  0  0  0  0  0  0
  145.9717  178.3709  150.7915 C   0  0  0  0  0  0  0  0  0  0  0  0
  145.7312  177.9422  152.0563 C   0  0  0  0  0  0  0  0  0  0  0  0
  146.9254  177.5664  152.6331 C   0  0  0  0  0  0  0  0  0  0  0  0
  147.3091  177.0399  153.8437 C   0  0  0  0  0  0  0  0  0  0  0  0
  145.0907  178.8274  149.7290 C   0  0  0  0  0  0  0  0  0  0  0  0
  145.1399  180.0761  149.4690 O   0  0  0  0  0  0  0  0  0  0  0  0
  144.2261  178.0511  148.9989 N   0  0  0  0  0  0  0  0  0  0  0  0
  143.2926  178.3792  147.8661 C   0  0  0  0  0  0  0  0  0  0  0  0
  142.0746  177.7614  148.6782 C   0  0  1  0  0  0  0  0  0  0  0  0
  140.8602  178.3855  148.3811 C   0  0  0  0  0  0  0  0  0  0  0  0
  140.8237  180.1217  148.6935 Cl  0  0  0  0  0  0  0  0  0  0  0  0
  142.5892  176.4305  148.7631 C   0  0  0  0  0  0  0  0  0  0  0  0
  142.1478  175.1210  148.6723 C   0  0  0  0  0  0  0  0  0  0  0  0
  140.9706  174.5690  148.2460 C   0  0  0  0  0  0  0  0  0  0  0  0
  139.7709  175.2215  147.6994 C   0  0  0  0  0  0  0  0  0  0  0  0
  141.1530  173.1730  148.3463 C   0  0  0  0  0  0  0  0  0  0  0  0
  142.3730  172.9380  148.8022 N   0  0  0  0  0  0  0  0  0  0  0  0
  143.0387  174.1136  149.0208 C   0  0  0  0  0  0  0  0  0  0  0  0
  144.3346  174.3192  149.4450 C   0  0  0  0  0  0  0  0  0  0  0  0
  145.1540  173.2755  149.7744 O   0  0  0  0  0  0  0  0  0  0  0  0
  144.7672  175.6199  149.5217 C   0  0  0  0  0  0  0  0  0  0  0  0
  143.9321  176.6486  149.1907 C   0  0  0  0  0  0  0  0  0  0  0  0
  147.6577  175.9765  160.0113 C   0  0  0  0  0  0  0  0  0  0  0  0
  148.1436  175.9668  161.3345 C   0  0  0  0  0  0  0  0  0  0  0  0
  149.3883  176.4370  161.6540 C   0  0  0  0  0  0  0  0  0  0  0  0
  150.0829  176.5422  162.7902 N   0  0  0  0  0  0  0  0  0  0  0  0
  1  2  1  0
  2  3  2  0
  3  4  1  0
  4  5  1  0
  5  6  2  0
  6  7  1  0
  6  8  1  0
  8  9  2  0
  9 10  1  0
 10 11  1  0
 11 12  1  0
 12 13  1  6
 13 14  1  0
 12 15  1  0
 15 16  2  0
 10 17  1  0
 17 18  2  0
 17 19  1  0
 19 20  2  0
 20 21  1  0
 21 22  2  0
 22 23  1  0
 23 24  1  0
 24 25  1  0
 25 26  2  0
 25 27  1  0
 27 28  1  0
 28 29  2  0
 29 30  1  0
 30 31  2  0
 31 32  1  0
 32 33  1  0
 33 34  2  0
 34 35  1  0
 35 36  2  0
 33 37  1  0
 37 38  2  0
 37 39  1  0
 39 40  1  0
 40 41  1  0
 41 42  1  6
 42 43  1  0
 41 44  1  0
 44 45  2  0
 45 46  1  0
 46 47  1  0
 46 48  2  0
 48 49  1  0
 49 50  1  0
 50 51  2  0
 51 52  1  0
 51 53  1  0
 53 54  2  0
 23 55  2  0
 55 56  1  0
 56 57  2  0
 57 58  1  0
 16  2  1  0
 58 19  1  0
 16  5  1  0
 57 21  1  0
 15  9  1  0
 36 28  1  0
 54 39  1  0
 35 31  1  0
 54 44  1  0
 50 45  1  0
M  END
$$$$
