
     RDKit          3D

 58 67  0  0  0  0  0  0  0  0999 V2000
  163.0536  155.0513  121.5728 C   0  0  0  0  0  0  0  0  0  0  0  0
  162.4300  153.7738  122.0351 C   0  0  0  0  0  0  0  0  0  0  0  0
  161.0792  153.5235  122.1573 C   0  0  0  0  0  0  0  0  0  0  0  0
  160.9751  152.2609  122.6063 N   0  0  0  0  0  0  0  0  0  0  0  0
  162.1747  151.7032  122.7735 C   0  0  0  0  0  0  0  0  0  0  0  0
  162.5271  150.4408  123.2073 C   0  0  0  0  0  0  0  0  0  0  0  0
  161.5500  149.5279  123.5559 O   0  0  0  0  0  0  0  0  0  0  0  0
  163.8448  150.1164  123.2836 C   0  0  0  0  0  0  0  0  0  0  0  0
  164.8166  151.0542  122.9266 C   0  0  0  0  0  0  0  0  0  0  0  0
  166.2259  150.9390  122.9194 N   0  0  0  0  0  0  0  0  0  0  0  0
  166.7389  152.3084  123.0298 C   0  0  0  0  0  0  0  0  0  0  0  0
  165.7158  153.0645  122.1980 C   0  0  1  0  0  0  0  0  0  0  0  0
  166.1109  152.8930  120.7516 C   0  0  0  0  0  0  0  0  0  0  0  0
  167.2325  154.1983  120.2958 Cl  0  0  0  0  0  0  0  0  0  0  0  0
  164.4445  152.3198  122.4929 C   0  0  0  0  0  0  0  0  0  0  0  0
  163.1122  152.6534  122.4139 C   0  0  0  0  0  0  0  0  0  0  0  0
  167.0212  149.7696  122.8304 C   0  0  0  0  0  0  0  0  0  0  0  0
  166.9652  149.0900  121.7777 O   0  0  0  0  0  0  0  0  0  0  0  0
  167.8926  149.3346  123.9081 C   0  0  0  0  0  0  0  0  0  0  0  0
  167.4414  148.9624  125.1772 C   0  0  0  0  0  0  0  0  0  0  0  0
  168.5344  148.5964  125.9710 C   0  0  0  0  0  0  0  0  0  0  0  0
  168.6655  148.1599  127.2576 C   0  0  0  0  0  0  0  0  0  0  0  0
  169.9013  147.8542  127.8198 C   0  0  0  0  0  0  0  0  0  0  0  0
  169.9584  147.4316  129.1866 N   0  0  0  0  0  0  0  0  0  0  0  0
  170.5322  148.1696  130.2095 C   0  0  0  0  0  0  0  0  0  0  0  0
  170.4715  149.4365  130.2671 O   0  0  0  0  0  0  0  0  0  0  0  0
  171.2478  147.5798  131.3079 N   0  0  0  0  0  0  0  0  0  0  0  0
  171.0712  148.1555  132.5947 C   0  0  0  0  0  0  0  0  0  0  0  0
  170.5924  147.3907  133.6546 C   0  0  0  0  0  0  0  0  0  0  0  0
  170.5295  147.9821  134.8939 C   0  0  0  0  0  0  0  0  0  0  0  0
  170.9229  149.2820  135.0967 C   0  0  0  0  0  0  0  0  0  0  0  0
  170.9814  150.0502  136.1887 N   0  0  0  0  0  0  0  0  0  0  0  0
  171.4769  151.2868  135.8955 C   0  0  0  0  0  0  0  0  0  0  0  0
  171.7346  151.2889  134.5632 C   0  0  0  0  0  0  0  0  0  0  0  0
  171.4005  150.0567  134.0436 C   0  0  0  0  0  0  0  0  0  0  0  0
  171.4617  149.4633  132.8051 C   0  0  0  0  0  0  0  0  0  0  0  0
  171.6817  152.2839  136.9333 C   0  0  0  0  0  0  0  0  0  0  0  0
  170.8400  152.2636  137.8927 O   0  0  0  0  0  0  0  0  0  0  0  0
  172.6771  153.2280  136.9697 N   0  0  0  0  0  0  0  0  0  0  0  0
  173.0915  154.2115  138.0296 C   0  0  0  0  0  0  0  0  0  0  0  0
  172.9401  155.4065  136.9935 C   0  0  1  0  0  0  0  0  0  0  0  0
  172.5672  156.6050  137.6077 C   0  0  0  0  0  0  0  0  0  0  0  0
  173.2131  156.8365  139.2332 Cl  0  0  0  0  0  0  0  0  0  0  0  0
  173.9327  154.9531  136.0702 C   0  0  0  0  0  0  0  0  0  0  0  0
  174.9500  155.4623  135.2804 C   0  0  0  0  0  0  0  0  0  0  0  0
  175.5545  156.6886  135.2277 C   0  0  0  0  0  0  0  0  0  0  0  0
  175.3228  157.8861  136.0500 C   0  0  0  0  0  0  0  0  0  0  0  0
  176.5611  156.5686  134.2455 C   0  0  0  0  0  0  0  0  0  0  0  0
  176.5367  155.3360  133.7641 N   0  0  0  0  0  0  0  0  0  0  0  0
  175.5553  154.6020  134.3730 C   0  0  0  0  0  0  0  0  0  0  0  0
  175.2235  153.2742  134.2036 C   0  0  0  0  0  0  0  0  0  0  0  0
  175.8633  152.4881  133.2860 O   0  0  0  0  0  0  0  0  0  0  0  0
  174.2215  152.7751  134.9983 C   0  0  0  0  0  0  0  0  0  0  0  0
  173.5929  153.5777  135.9070 C   0  0  0  0  0  0  0  0  0  0  0  0
  170.9885  148.0143  127.0120 C   0  0  0  0  0  0  0  0  0  0  0  0
  170.8512  148.4654  125.6836 C   0  0  0  0  0  0  0  0  0  0  0  0
  169.6309  148.7632  125.1408 C   0  0  0  0  0  0  0  0  0  0  0  0
  169.2218  149.1947  123.9445 N   0  0  0  0  0  0  0  0  0  0  0  0
  1  2  1  0
  2  3  2  0
  3  4  1  0
  4  5  1  0
  5  6  2  0
  6  7  1  0
  6  8  1  0
  8  9  2  0
  9 10  1  0
 10 11  1  0
 11 12  1  0
 12 13  1  6
 13 14  1  0
 12 15  1  0
 15 16  2  0
 10 17  1  0
 17 18  2  0
 17 19  1  0
 19 20  2  0
 20 21  1  0
 21 22  2  0
 22 23  1  0
 23 24  1  0
 24 25  1  0
 25 26  2  0
 25 27  1  0
 27 28  1  0
 28 29  2  0
 29 30  1  0
 30 31  2  0
 31 32  1  0
 32 33  1  0
 33 34  2  0
 34 35  1  0
 35 36  2  0
 33 37  1  0
 37 38  2  0
 37 39  1  0
 39 40  1  0
 40 41  1  0
 41 42  1  1
 42 43  1  0
 41 44  1  0
 44 45  2  0
 45 46  1  0
 46 47  1  0
 46 48  2  0
 48 49  1  0
 49 50  1  0
 50 51  2  0
 51 52  1  0
 51 53  1  0
 53 54  2  0
 23 55  2  0
 55 56  1  0
 56 57  2  0
 57 58  1  0
 16  2  1  0
 58 19  1  0
 16  5  1  0
 57 21  1  0
 15  9  1  0
 36 28  1  0
 54 39  1  0
 35 31  1  0
 54 44  1  0
 50 45  1  0
M  END
$$$$
