
     RDKit          3D

 58 67  0  0  0  0  0  0  0  0999 V2000
  178.8534  154.4220  105.8408 C   0  0  0  0  0  0  0  0  0  0  0  0
  178.7763  155.7485  106.5257 C   0  0  0  0  0  0  0  0  0  0  0  0
  179.2828  156.9409  106.0526 C   0  0  0  0  0  0  0  0  0  0  0  0
  178.9932  157.8634  106.9863 N   0  0  0  0  0  0  0  0  0  0  0  0
  178.3371  157.3255  108.0150 C   0  0  0  0  0  0  0  0  0  0  0  0
  177.8512  157.9012  109.1719 C   0  0  0  0  0  0  0  0  0  0  0  0
  178.0252  159.2527  109.4017 O   0  0  0  0  0  0  0  0  0  0  0  0
  177.2027  157.1176  110.0734 C   0  0  0  0  0  0  0  0  0  0  0  0
  177.0377  155.7535  109.8218 C   0  0  0  0  0  0  0  0  0  0  0  0
  176.4002  154.7602  110.6006 N   0  0  0  0  0  0  0  0  0  0  0  0
  176.9979  153.4858  110.1892 C   0  0  0  0  0  0  0  0  0  0  0  0
  177.1914  153.7283  108.7013 C   0  0  1  0  0  0  0  0  0  0  0  0
  175.8615  153.4696  108.0365 C   0  0  0  0  0  0  0  0  0  0  0  0
  175.0126  152.1755  108.9164 Cl  0  0  0  0  0  0  0  0  0  0  0  0
  177.5334  155.1906  108.6531 C   0  0  0  0  0  0  0  0  0  0  0  0
  178.1907  155.9792  107.7373 C   0  0  0  0  0  0  0  0  0  0  0  0
  175.3939  154.9142  111.5862 C   0  0  0  0  0  0  0  0  0  0  0  0
  174.6193  153.9515  111.8018 O   0  0  0  0  0  0  0  0  0  0  0  0
  175.2301  156.1391  112.3497 C   0  0  0  0  0  0  0  0  0  0  0  0
  174.6490  157.3047  111.8433 C   0  0  0  0  0  0  0  0  0  0  0  0
  174.6442  158.2914  112.8359 C   0  0  0  0  0  0  0  0  0  0  0  0
  174.2067  159.5834  112.8836 C   0  0  0  0  0  0  0  0  0  0  0  0
  174.3221  160.3687  114.0267 C   0  0  0  0  0  0  0  0  0  0  0  0
  173.8669  161.7256  113.9874 N   0  0  0  0  0  0  0  0  0  0  0  0
  173.5695  162.4169  112.8238 C   0  0  0  0  0  0  0  0  0  0  0  0
  173.1116  161.8537  111.7821 O   0  0  0  0  0  0  0  0  0  0  0  0
  173.7434  163.8363  112.6781 N   0  0  0  0  0  0  0  0  0  0  0  0
  172.6294  164.5942  112.2277 C   0  0  0  0  0  0  0  0  0  0  0  0
  172.0610  165.5715  113.0397 C   0  0  0  0  0  0  0  0  0  0  0  0
  171.0438  166.3307  112.5117 C   0  0  0  0  0  0  0  0  0  0  0  0
  170.5928  166.1448  111.2281 C   0  0  0  0  0  0  0  0  0  0  0  0
  169.6594  166.7628  110.4982 N   0  0  0  0  0  0  0  0  0  0  0  0
  169.5871  166.2361  109.2421 C   0  0  0  0  0  0  0  0  0  0  0  0
  170.5133  165.2457  109.1894 C   0  0  0  0  0  0  0  0  0  0  0  0
  171.1520  165.1687  110.4085 C   0  0  0  0  0  0  0  0  0  0  0  0
  172.1684  164.4102  110.9390 C   0  0  0  0  0  0  0  0  0  0  0  0
  168.6775  166.7790  108.2465 C   0  0  0  0  0  0  0  0  0  0  0  0
  167.4343  166.6539  108.5076 O   0  0  0  0  0  0  0  0  0  0  0  0
  169.0301  167.3977  107.0735 N   0  0  0  0  0  0  0  0  0  0  0  0
  170.1024  168.4015  106.7492 C   0  0  0  0  0  0  0  0  0  0  0  0
  169.0123  169.3828  106.1381 C   0  0  1  0  0  0  0  0  0  0  0  0
  169.3594  170.7283  106.2850 C   0  0  0  0  0  0  0  0  0  0  0  0
  170.1357  171.1299  107.8177 Cl  0  0  0  0  0  0  0  0  0  0  0  0
  168.5688  168.5106  105.0960 C   0  0  0  0  0  0  0  0  0  0  0  0
  168.1958  168.5634  103.7633 C   0  0  0  0  0  0  0  0  0  0  0  0
  168.2990  169.5413  102.8119 C   0  0  0  0  0  0  0  0  0  0  0  0
  168.8918  170.8842  102.9058 C   0  0  0  0  0  0  0  0  0  0  0  0
  167.7850  168.9689  101.6285 C   0  0  0  0  0  0  0  0  0  0  0  0
  167.4110  167.7263  101.8882 N   0  0  0  0  0  0  0  0  0  0  0  0
  167.6453  167.4186  103.2010 C   0  0  0  0  0  0  0  0  0  0  0  0
  167.4479  166.2286  103.8692 C   0  0  0  0  0  0  0  0  0  0  0  0
  166.8964  165.1422  103.2487 O   0  0  0  0  0  0  0  0  0  0  0  0
  167.8305  166.1819  105.1868 C   0  0  0  0  0  0  0  0  0  0  0  0
  168.3770  167.2791  105.7890 C   0  0  0  0  0  0  0  0  0  0  0  0
  174.9012  159.7766  115.1103 C   0  0  0  0  0  0  0  0  0  0  0  0
  175.3527  158.4422  115.0590 C   0  0  0  0  0  0  0  0  0  0  0  0
  175.2343  157.6789  113.9296 C   0  0  0  0  0  0  0  0  0  0  0  0
  175.5641  156.4238  113.6125 N   0  0  0  0  0  0  0  0  0  0  0  0
  1  2  1  0
  2  3  2  0
  3  4  1  0
  4  5  1  0
  5  6  2  0
  6  7  1  0
  6  8  1  0
  8  9  2  0
  9 10  1  0
 10 11  1  0
 11 12  1  0
 12 13  1  6
 13 14  1  0
 12 15  1  0
 15 16  2  0
 10 17  1  0
 17 18  2  0
 17 19  1  0
 19 20  2  0
 20 21  1  0
 21 22  2  0
 22 23  1  0
 23 24  1  0
 24 25  1  0
 25 26  2  0
 25 27  1  0
 27 28  1  0
 28 29  2  0
 29 30  1  0
 30 31  2  0
 31 32  1  0
 32 33  1  0
 33 34  2  0
 34 35  1  0
 35 36  2  0
 33 37  1  0
 37 38  2  0
 37 39  1  0
 39 40  1  0
 40 41  1  0
 41 42  1  6
 42 43  1  0
 41 44  1  0
 44 45  2  0
 45 46  1  0
 46 47  1  0
 46 48  2  0
 48 49  1  0
 49 50  1  0
 50 51  2  0
 51 52  1  0
 51 53  1  0
 53 54  2  0
 23 55  2  0
 55 56  1  0
 56 57  2  0
 57 58  1  0
 16  2  1  0
 58 19  1  0
 16  5  1  0
 57 21  1  0
 15  9  1  0
 36 28  1  0
 54 39  1  0
 35 31  1  0
 54 44  1  0
 50 45  1  0
M  END
$$$$
