
     RDKit          3D

 58 67  0  0  0  0  0  0  0  0999 V2000
  134.3313  137.2726  119.8719 C   0  0  0  0  0  0  0  0  0  0  0  0
  133.4059  136.1160  120.0729 C   0  0  0  0  0  0  0  0  0  0  0  0
  133.1116  135.1369  119.1472 C   0  0  0  0  0  0  0  0  0  0  0  0
  132.2391  134.3092  119.7473 N   0  0  0  0  0  0  0  0  0  0  0  0
  131.9674  134.7067  120.9907 C   0  0  0  0  0  0  0  0  0  0  0  0
  131.1401  134.1576  121.9500 C   0  0  0  0  0  0  0  0  0  0  0  0
  130.4256  133.0071  121.6754 O   0  0  0  0  0  0  0  0  0  0  0  0
  131.0436  134.7669  123.1611 C   0  0  0  0  0  0  0  0  0  0  0  0
  131.7743  135.9294  123.4181 C   0  0  0  0  0  0  0  0  0  0  0  0
  131.8360  136.7192  124.5894 N   0  0  0  0  0  0  0  0  0  0  0  0
  132.2522  138.0546  124.1490 C   0  0  0  0  0  0  0  0  0  0  0  0
  133.2260  137.6982  123.0378 C   0  0  1  0  0  0  0  0  0  0  0  0
  134.5415  137.3618  123.6965 C   0  0  0  0  0  0  0  0  0  0  0  0
  135.7872  137.1618  122.4404 Cl  0  0  0  0  0  0  0  0  0  0  0  0
  132.6013  136.4686  122.4415 C   0  0  0  0  0  0  0  0  0  0  0  0
  132.7025  135.8560  121.2139 C   0  0  0  0  0  0  0  0  0  0  0  0
  131.5593  136.3459  125.9281 C   0  0  0  0  0  0  0  0  0  0  0  0
  131.1727  135.1739  126.1517 O   0  0  0  0  0  0  0  0  0  0  0  0
  131.7072  137.2670  127.0416 C   0  0  0  0  0  0  0  0  0  0  0  0
  130.6384  137.9054  127.6761 C   0  0  0  0  0  0  0  0  0  0  0  0
  131.1265  138.7185  128.7053 C   0  0  0  0  0  0  0  0  0  0  0  0
  130.5375  139.5418  129.6210 C   0  0  0  0  0  0  0  0  0  0  0  0
  131.2713  140.2557  130.5636 C   0  0  0  0  0  0  0  0  0  0  0  0
  130.5819  141.1227  131.4707 N   0  0  0  0  0  0  0  0  0  0  0  0
  129.6325  142.0573  131.0894 C   0  0  0  0  0  0  0  0  0  0  0  0
  129.6722  142.6705  129.9783 O   0  0  0  0  0  0  0  0  0  0  0  0
  128.5080  142.4241  131.9062 N   0  0  0  0  0  0  0  0  0  0  0  0
  128.2250  143.8084  132.0551 C   0  0  0  0  0  0  0  0  0  0  0  0
  127.2646  144.4259  131.2589 C   0  0  0  0  0  0  0  0  0  0  0  0
  126.9739  145.7452  131.5132 C   0  0  0  0  0  0  0  0  0  0  0  0
  127.5998  146.4443  132.5158 C   0  0  0  0  0  0  0  0  0  0  0  0
  127.4692  147.6965  132.9640 N   0  0  0  0  0  0  0  0  0  0  0  0
  128.3009  147.9316  134.0193 C   0  0  0  0  0  0  0  0  0  0  0  0
  128.9802  146.7769  134.2348 C   0  0  0  0  0  0  0  0  0  0  0  0
  128.5635  145.8376  133.3160 C   0  0  0  0  0  0  0  0  0  0  0  0
  128.8531  144.5185  133.0592 C   0  0  0  0  0  0  0  0  0  0  0  0
  128.3019  149.2109  134.7099 C   0  0  0  0  0  0  0  0  0  0  0  0
  128.9861  150.1361  134.1575 O   0  0  0  0  0  0  0  0  0  0  0  0
  127.6490  149.5041  135.8808 N   0  0  0  0  0  0  0  0  0  0  0  0
  126.6382  148.7361  136.6876 C   0  0  0  0  0  0  0  0  0  0  0  0
  125.6367  149.9679  136.6232 C   0  0  1  0  0  0  0  0  0  0  0  0
  124.2969  149.5716  136.6437 C   0  0  0  0  0  0  0  0  0  0  0  0
  123.6585  149.2013  138.2464 Cl  0  0  0  0  0  0  0  0  0  0  0  0
  126.4763  150.9009  137.3074 C   0  0  0  0  0  0  0  0  0  0  0  0
  126.3827  151.9075  138.2539 C   0  0  0  0  0  0  0  0  0  0  0  0
  125.3769  152.2936  139.0974 C   0  0  0  0  0  0  0  0  0  0  0  0
  124.0387  151.7142  139.2903 C   0  0  0  0  0  0  0  0  0  0  0  0
  125.9125  153.3546  139.8587 C   0  0  0  0  0  0  0  0  0  0  0  0
  127.1616  153.5622  139.4738 N   0  0  0  0  0  0  0  0  0  0  0  0
  127.5090  152.6891  138.4789 C   0  0  0  0  0  0  0  0  0  0  0  0
  128.7181  152.5337  137.8343 C   0  0  0  0  0  0  0  0  0  0  0  0
  129.7841  153.3450  138.1071 O   0  0  0  0  0  0  0  0  0  0  0  0
  128.8051  151.5264  136.9055 C   0  0  0  0  0  0  0  0  0  0  0  0
  127.7277  150.7285  136.6454 C   0  0  0  0  0  0  0  0  0  0  0  0
  132.6247  140.0903  130.5270 C   0  0  0  0  0  0  0  0  0  0  0  0
  133.2311  139.2398  129.5805 C   0  0  0  0  0  0  0  0  0  0  0  0
  132.4999  138.5424  128.6578 C   0  0  0  0  0  0  0  0  0  0  0  0
  132.8055  137.6894  127.6762 N   0  0  0  0  0  0  0  0  0  0  0  0
  1  2  1  0
  2  3  2  0
  3  4  1  0
  4  5  1  0
  5  6  2  0
  6  7  1  0
  6  8  1  0
  8  9  2  0
  9 10  1  0
 10 11  1  0
 11 12  1  0
 12 13  1  1
 13 14  1  0
 12 15  1  0
 15 16  2  0
 10 17  1  0
 17 18  2  0
 17 19  1  0
 19 20  2  0
 20 21  1  0
 21 22  2  0
 22 23  1  0
 23 24  1  0
 24 25  1  0
 25 26  2  0
 25 27  1  0
 27 28  1  0
 28 29  2  0
 29 30  1  0
 30 31  2  0
 31 32  1  0
 32 33  1  0
 33 34  2  0
 34 35  1  0
 35 36  2  0
 33 37  1  0
 37 38  2  0
 37 39  1  0
 39 40  1  0
 40 41  1  0
 41 42  1  1
 42 43  1  0
 41 44  1  0
 44 45  2  0
 45 46  1  0
 46 47  1  0
 46 48  2  0
 48 49  1  0
 49 50  1  0
 50 51  2  0
 51 52  1  0
 51 53  1  0
 53 54  2  0
 23 55  2  0
 55 56  1  0
 56 57  2  0
 57 58  1  0
 16  2  1  0
 58 19  1  0
 16  5  1  0
 57 21  1  0
 15  9  1  0
 36 28  1  0
 54 39  1  0
 35 31  1  0
 54 44  1  0
 50 45  1  0
M  END
$$$$
