
     RDKit          3D

 58 67  0  0  0  0  0  0  0  0999 V2000
  200.3694  133.1742  144.6466 C   0  0  0  0  0  0  0  0  0  0  0  0
  200.5548  133.9668  143.3928 C   0  0  0  0  0  0  0  0  0  0  0  0
  200.0839  135.2415  143.1571 C   0  0  0  0  0  0  0  0  0  0  0  0
  200.4750  135.5567  141.9103 N   0  0  0  0  0  0  0  0  0  0  0  0
  201.1612  134.5607  141.3490 C   0  0  0  0  0  0  0  0  0  0  0  0
  201.7430  134.4609  140.1009 C   0  0  0  0  0  0  0  0  0  0  0  0
  201.6529  135.5103  139.2062 O   0  0  0  0  0  0  0  0  0  0  0  0
  202.4015  133.3182  139.7726 C   0  0  0  0  0  0  0  0  0  0  0  0
  202.4808  132.2692  140.6917 C   0  0  0  0  0  0  0  0  0  0  0  0
  203.1104  131.0086  140.5742 N   0  0  0  0  0  0  0  0  0  0  0  0
  202.4246  130.1295  141.5267 C   0  0  0  0  0  0  0  0  0  0  0  0
  202.1574  131.0977  142.6674 C   0  0  1  0  0  0  0  0  0  0  0  0
  203.4311  131.1932  143.4713 C   0  0  0  0  0  0  0  0  0  0  0  0
  204.7317  131.8194  142.4293 Cl  0  0  0  0  0  0  0  0  0  0  0  0
  201.8893  132.3862  141.9426 C   0  0  0  0  0  0  0  0  0  0  0  0
  201.2214  133.5406  142.2800 C   0  0  0  0  0  0  0  0  0  0  0  0
  204.1792  130.6250  139.7265 C   0  0  0  0  0  0  0  0  0  0  0  0
  204.7260  129.5135  139.9235 O   0  0  0  0  0  0  0  0  0  0  0  0
  204.6592  131.4682  138.6455 C   0  0  0  0  0  0  0  0  0  0  0  0
  204.2244  131.3660  137.3214 C   0  0  0  0  0  0  0  0  0  0  0  0
  204.8815  132.3236  136.5405 C   0  0  0  0  0  0  0  0  0  0  0  0
  204.8369  132.6587  135.2181 C   0  0  0  0  0  0  0  0  0  0  0  0
  205.6131  133.6811  134.6806 C   0  0  0  0  0  0  0  0  0  0  0  0
  205.5322  133.9516  133.2770 N   0  0  0  0  0  0  0  0  0  0  0  0
  204.4678  134.5939  132.6649 C   0  0  0  0  0  0  0  0  0  0  0  0
  203.7477  135.4568  133.2557 O   0  0  0  0  0  0  0  0  0  0  0  0
  204.0736  134.3543  131.3035 N   0  0  0  0  0  0  0  0  0  0  0  0
  203.2536  135.3285  130.6735 C   0  0  0  0  0  0  0  0  0  0  0  0
  201.9324  135.0387  130.3446 C   0  0  0  0  0  0  0  0  0  0  0  0
  201.1661  136.0519  129.8195 C   0  0  0  0  0  0  0  0  0  0  0  0
  201.6713  137.3132  129.6208 C   0  0  0  0  0  0  0  0  0  0  0  0
  201.1269  138.4446  129.1628 N   0  0  0  0  0  0  0  0  0  0  0  0
  202.0304  139.4665  129.1748 C   0  0  0  0  0  0  0  0  0  0  0  0
  203.1874  138.9476  129.6580 C   0  0  0  0  0  0  0  0  0  0  0  0
  202.9915  137.6134  129.9433 C   0  0  0  0  0  0  0  0  0  0  0  0
  203.7561  136.5982  130.4675 C   0  0  0  0  0  0  0  0  0  0  0  0
  201.6556  140.8109  128.7681 C   0  0  0  0  0  0  0  0  0  0  0  0
  201.1275  141.5357  129.6765 O   0  0  0  0  0  0  0  0  0  0  0  0
  201.8125  141.3567  127.5188 N   0  0  0  0  0  0  0  0  0  0  0  0
  202.4053  140.8088  126.2497 C   0  0  0  0  0  0  0  0  0  0  0  0
  203.3932  142.0502  126.1639 C   0  0  1  0  0  0  0  0  0  0  0  0
  204.6064  141.7289  125.5495 C   0  0  0  0  0  0  0  0  0  0  0  0
  204.4551  140.8706  124.0152 Cl  0  0  0  0  0  0  0  0  0  0  0  0
  202.3852  143.0581  126.0563 C   0  0  0  0  0  0  0  0  0  0  0  0
  202.1374  144.2329  125.3661 C   0  0  0  0  0  0  0  0  0  0  0  0
  202.7494  144.8225  124.2938 C   0  0  0  0  0  0  0  0  0  0  0  0
  203.8882  144.3553  123.4885 C   0  0  0  0  0  0  0  0  0  0  0  0
  201.9957  145.9851  124.0245 C   0  0  0  0  0  0  0  0  0  0  0  0
  201.0012  146.0549  124.8949 N   0  0  0  0  0  0  0  0  0  0  0  0
  201.0384  144.9895  125.7530 C   0  0  0  0  0  0  0  0  0  0  0  0
  200.1696  144.6549  126.7704 C   0  0  0  0  0  0  0  0  0  0  0  0
  199.1085  145.4530  127.0967 O   0  0  0  0  0  0  0  0  0  0  0  0
  200.4166  143.4833  127.4418 C   0  0  0  0  0  0  0  0  0  0  0  0
  201.4837  142.7015  127.1021 C   0  0  0  0  0  0  0  0  0  0  0  0
  206.4308  134.3400  135.5510 C   0  0  0  0  0  0  0  0  0  0  0  0
  206.4756  133.9923  136.9164 C   0  0  0  0  0  0  0  0  0  0  0  0
  205.7080  132.9849  137.4344 C   0  0  0  0  0  0  0  0  0  0  0  0
  205.5540  132.4616  138.6538 N   0  0  0  0  0  0  0  0  0  0  0  0
  1  2  1  0
  2  3  2  0
  3  4  1  0
  4  5  1  0
  5  6  2  0
  6  7  1  0
  6  8  1  0
  8  9  2  0
  9 10  1  0
 10 11  1  0
 11 12  1  0
 12 13  1  1
 13 14  1  0
 12 15  1  0
 15 16  2  0
 10 17  1  0
 17 18  2  0
 17 19  1  0
 19 20  2  0
 20 21  1  0
 21 22  2  0
 22 23  1  0
 23 24  1  0
 24 25  1  0
 25 26  2  0
 25 27  1  0
 27 28  1  0
 28 29  2  0
 29 30  1  0
 30 31  2  0
 31 32  1  0
 32 33  1  0
 33 34  2  0
 34 35  1  0
 35 36  2  0
 33 37  1  0
 37 38  2  0
 37 39  1  0
 39 40  1  0
 40 41  1  0
 41 42  1  6
 42 43  1  0
 41 44  1  0
 44 45  2  0
 45 46  1  0
 46 47  1  0
 46 48  2  0
 48 49  1  0
 49 50  1  0
 50 51  2  0
 51 52  1  0
 51 53  1  0
 53 54  2  0
 23 55  2  0
 55 56  1  0
 56 57  2  0
 57 58  1  0
 16  2  1  0
 58 19  1  0
 16  5  1  0
 57 21  1  0
 15  9  1  0
 36 28  1  0
 54 39  1  0
 35 31  1  0
 54 44  1  0
 50 45  1  0
M  END
$$$$
