
     RDKit          3D

 58 67  0  0  0  0  0  0  0  0999 V2000
  209.3485  124.2558  127.3333 C   0  0  0  0  0  0  0  0  0  0  0  0
  209.2197  125.7440  127.2756 C   0  0  0  0  0  0  0  0  0  0  0  0
  208.2452  126.4525  126.6044 C   0  0  0  0  0  0  0  0  0  0  0  0
  208.5170  127.7513  126.8187 N   0  0  0  0  0  0  0  0  0  0  0  0
  209.6000  127.9026  127.5817 C   0  0  0  0  0  0  0  0  0  0  0  0
  210.2224  129.0451  128.0436 C   0  0  0  0  0  0  0  0  0  0  0  0
  209.7225  130.2905  127.7136 O   0  0  0  0  0  0  0  0  0  0  0  0
  211.3282  128.9211  128.8239 C   0  0  0  0  0  0  0  0  0  0  0  0
  211.8172  127.6527  129.1456 C   0  0  0  0  0  0  0  0  0  0  0  0
  212.9311  127.2857  129.9356 N   0  0  0  0  0  0  0  0  0  0  0  0
  213.3174  125.9454  129.4829 C   0  0  0  0  0  0  0  0  0  0  0  0
  211.9544  125.3377  129.1947 C   0  0  1  0  0  0  0  0  0  0  0  0
  211.3915  124.8725  130.5154 C   0  0  0  0  0  0  0  0  0  0  0  0
  211.2702  126.2642  131.6190 Cl  0  0  0  0  0  0  0  0  0  0  0  0
  211.1792  126.5138  128.6720 C   0  0  0  0  0  0  0  0  0  0  0  0
  210.0595  126.6337  127.8816 C   0  0  0  0  0  0  0  0  0  0  0  0
  213.5770  128.0242  130.9580 C   0  0  0  0  0  0  0  0  0  0  0  0
  214.4168  127.4342  131.6790 O   0  0  0  0  0  0  0  0  0  0  0  0
  213.3022  129.4303  131.1977 C   0  0  0  0  0  0  0  0  0  0  0  0
  212.0665  129.9243  131.6243 C   0  0  0  0  0  0  0  0  0  0  0  0
  212.1429  131.3152  131.7595 C   0  0  0  0  0  0  0  0  0  0  0  0
  211.2539  132.2794  132.1377 C   0  0  0  0  0  0  0  0  0  0  0  0
  211.5933  133.6279  132.1910 C   0  0  0  0  0  0  0  0  0  0  0  0
  210.5948  134.5822  132.5681 N   0  0  0  0  0  0  0  0  0  0  0  0
  209.2850  134.2592  132.8848 C   0  0  0  0  0  0  0  0  0  0  0  0
  208.8782  133.0630  133.0106 O   0  0  0  0  0  0  0  0  0  0  0  0
  208.2578  135.2399  133.1070 N   0  0  0  0  0  0  0  0  0  0  0  0
  207.0724  134.8155  133.7651 C   0  0  0  0  0  0  0  0  0  0  0  0
  205.8479  134.8336  133.1033 C   0  0  0  0  0  0  0  0  0  0  0  0
  204.7549  134.3262  133.7648 C   0  0  0  0  0  0  0  0  0  0  0  0
  204.8509  133.8141  135.0352 C   0  0  0  0  0  0  0  0  0  0  0  0
  203.9574  133.2509  135.8541 N   0  0  0  0  0  0  0  0  0  0  0  0
  204.5384  132.8632  137.0258 C   0  0  0  0  0  0  0  0  0  0  0  0
  205.8489  133.2026  136.9329 C   0  0  0  0  0  0  0  0  0  0  0  0
  206.0695  133.7936  135.7074 C   0  0  0  0  0  0  0  0  0  0  0  0
  207.1609  134.3023  135.0441 C   0  0  0  0  0  0  0  0  0  0  0  0
  203.7755  132.1789  138.0569 C   0  0  0  0  0  0  0  0  0  0  0  0
  203.9693  130.9202  138.1438 O   0  0  0  0  0  0  0  0  0  0  0  0
  202.8811  132.7542  138.9243 N   0  0  0  0  0  0  0  0  0  0  0  0
  202.6981  132.6250  140.4117 C   0  0  0  0  0  0  0  0  0  0  0  0
  201.1777  132.2157  140.1987 C   0  0  1  0  0  0  0  0  0  0  0  0
  200.7105  131.3515  141.1924 C   0  0  0  0  0  0  0  0  0  0  0  0
  201.5140  131.5161  142.7546 Cl  0  0  0  0  0  0  0  0  0  0  0  0
  200.7640  133.4323  139.5722 C   0  0  0  0  0  0  0  0  0  0  0  0
  199.6910  134.3079  139.5736 C   0  0  0  0  0  0  0  0  0  0  0  0
  198.6024  134.4356  140.3925 C   0  0  0  0  0  0  0  0  0  0  0  0
  198.2361  133.6704  141.5941 C   0  0  0  0  0  0  0  0  0  0  0  0
  197.8949  135.5549  139.9038 C   0  0  0  0  0  0  0  0  0  0  0  0
  198.5472  136.0450  138.8618 N   0  0  0  0  0  0  0  0  0  0  0  0
  199.6743  135.3100  138.6117 C   0  0  0  0  0  0  0  0  0  0  0  0
  200.6509  135.5036  137.6575 C   0  0  0  0  0  0  0  0  0  0  0  0
  200.5643  136.5127  136.7392 O   0  0  0  0  0  0  0  0  0  0  0  0
  201.7162  134.6377  137.6705 C   0  0  0  0  0  0  0  0  0  0  0  0
  201.7825  133.6344  138.5947 C   0  0  0  0  0  0  0  0  0  0  0  0
  212.8737  133.9428  131.8423 C   0  0  0  0  0  0  0  0  0  0  0  0
  213.7904  132.9456  131.4517 C   0  0  0  0  0  0  0  0  0  0  0  0
  213.4460  131.6223  131.4027 C   0  0  0  0  0  0  0  0  0  0  0  0
  214.0954  130.5002  131.0807 N   0  0  0  0  0  0  0  0  0  0  0  0
  1  2  1  0
  2  3  2  0
  3  4  1  0
  4  5  1  0
  5  6  2  0
  6  7  1  0
  6  8  1  0
  8  9  2  0
  9 10  1  0
 10 11  1  0
 11 12  1  0
 12 13  1  1
 13 14  1  0
 12 15  1  0
 15 16  2  0
 10 17  1  0
 17 18  2  0
 17 19  1  0
 19 20  2  0
 20 21  1  0
 21 22  2  0
 22 23  1  0
 23 24  1  0
 24 25  1  0
 25 26  2  0
 25 27  1  0
 27 28  1  0
 28 29  2  0
 29 30  1  0
 30 31  2  0
 31 32  1  0
 32 33  1  0
 33 34  2  0
 34 35  1  0
 35 36  2  0
 33 37  1  0
 37 38  2  0
 37 39  1  0
 39 40  1  0
 40 41  1  0
 41 42  1  1
 42 43  1  0
 41 44  1  0
 44 45  2  0
 45 46  1  0
 46 47  1  0
 46 48  2  0
 48 49  1  0
 49 50  1  0
 50 51  2  0
 51 52  1  0
 51 53  1  0
 53 54  2  0
 23 55  2  0
 55 56  1  0
 56 57  2  0
 57 58  1  0
 16  2  1  0
 58 19  1  0
 16  5  1  0
 57 21  1  0
 15  9  1  0
 36 28  1  0
 54 39  1  0
 35 31  1  0
 54 44  1  0
 50 45  1  0
M  END
$$$$
