
     RDKit          3D

 58 67  0  0  0  0  0  0  0  0999 V2000
  202.5694  128.2681  145.2408 C   0  0  0  0  0  0  0  0  0  0  0  0
  201.8826  127.5547  144.1210 C   0  0  0  0  0  0  0  0  0  0  0  0
  201.1093  126.4179  144.2313 C   0  0  0  0  0  0  0  0  0  0  0  0
  200.7003  126.1252  142.9848 N   0  0  0  0  0  0  0  0  0  0  0  0
  201.1678  127.0060  142.0997 C   0  0  0  0  0  0  0  0  0  0  0  0
  200.9939  127.0859  140.7323 C   0  0  0  0  0  0  0  0  0  0  0  0
  200.2299  126.1420  140.0728 O   0  0  0  0  0  0  0  0  0  0  0  0
  201.5847  128.1042  140.0533 C   0  0  0  0  0  0  0  0  0  0  0  0
  202.3531  129.0478  140.7393 C   0  0  0  0  0  0  0  0  0  0  0  0
  203.0455  130.1795  140.2500 N   0  0  0  0  0  0  0  0  0  0  0  0
  204.1023  130.4548  141.2287 C   0  0  0  0  0  0  0  0  0  0  0  0
  203.3890  130.1059  142.5247 C   0  0  1  0  0  0  0  0  0  0  0  0
  202.5482  131.3015  142.9002 C   0  0  0  0  0  0  0  0  0  0  0  0
  202.7064  132.5448  141.6359 Cl  0  0  0  0  0  0  0  0  0  0  0  0
  202.5182  128.9521  142.1148 C   0  0  0  0  0  0  0  0  0  0  0  0
  201.9225  127.9232  142.8069 C   0  0  0  0  0  0  0  0  0  0  0  0
  202.8090  130.9227  139.0669 C   0  0  0  0  0  0  0  0  0  0  0  0
  201.6353  130.9882  138.6296 O   0  0  0  0  0  0  0  0  0  0  0  0
  203.8708  131.6063  138.3492 C   0  0  0  0  0  0  0  0  0  0  0  0
  203.7629  132.9039  137.8420 C   0  0  0  0  0  0  0  0  0  0  0  0
  204.9613  133.2586  137.2120 C   0  0  0  0  0  0  0  0  0  0  0  0
  205.3945  134.3797  136.5653 C   0  0  0  0  0  0  0  0  0  0  0  0
  206.6691  134.4786  136.0154 C   0  0  0  0  0  0  0  0  0  0  0  0
  207.0379  135.6776  135.3253 N   0  0  0  0  0  0  0  0  0  0  0  0
  206.5038  136.0759  134.1103 C   0  0  0  0  0  0  0  0  0  0  0  0
  205.2554  136.1794  133.9037 O   0  0  0  0  0  0  0  0  0  0  0  0
  207.3040  136.4157  132.9655 N   0  0  0  0  0  0  0  0  0  0  0  0
  207.0881  137.6842  132.3633 C   0  0  0  0  0  0  0  0  0  0  0  0
  207.8845  138.7748  132.7008 C   0  0  0  0  0  0  0  0  0  0  0  0
  207.6834  139.9505  132.0175 C   0  0  0  0  0  0  0  0  0  0  0  0
  206.7339  140.0618  131.0318 C   0  0  0  0  0  0  0  0  0  0  0  0
  206.3799  141.0668  130.2252 N   0  0  0  0  0  0  0  0  0  0  0  0
  205.3857  140.6873  129.3719 C   0  0  0  0  0  0  0  0  0  0  0  0
  205.1071  139.3914  129.6624 C   0  0  0  0  0  0  0  0  0  0  0  0
  205.9301  138.9787  130.6882 C   0  0  0  0  0  0  0  0  0  0  0  0
  206.1326  137.8043  131.3735 C   0  0  0  0  0  0  0  0  0  0  0  0
  204.8679  141.5971  128.3632 C   0  0  0  0  0  0  0  0  0  0  0  0
  203.7542  142.1550  128.6421 O   0  0  0  0  0  0  0  0  0  0  0  0
  205.4565  141.8995  127.1610 N   0  0  0  0  0  0  0  0  0  0  0  0
  205.9931  143.1880  126.6003 C   0  0  0  0  0  0  0  0  0  0  0  0
  205.0610  143.0314  125.3230 C   0  0  1  0  0  0  0  0  0  0  0  0
  204.6699  144.2626  124.7903 C   0  0  0  0  0  0  0  0  0  0  0  0
  202.9467  144.4034  124.4382 Cl  0  0  0  0  0  0  0  0  0  0  0  0
  205.6265  141.8053  124.8536 C   0  0  0  0  0  0  0  0  0  0  0  0
  205.9939  141.2005  123.6631 C   0  0  0  0  0  0  0  0  0  0  0  0
  206.1296  141.6759  122.3873 C   0  0  0  0  0  0  0  0  0  0  0  0
  205.9507  143.0411  121.8698 C   0  0  0  0  0  0  0  0  0  0  0  0
  206.5846  140.5788  121.6248 C   0  0  0  0  0  0  0  0  0  0  0  0
  206.7070  139.5308  122.4237 N   0  0  0  0  0  0  0  0  0  0  0  0
  206.3550  139.8597  123.7046 C   0  0  0  0  0  0  0  0  0  0  0  0
  206.3819  139.0853  124.8454 C   0  0  0  0  0  0  0  0  0  0  0  0
  206.7464  137.7681  124.8079 O   0  0  0  0  0  0  0  0  0  0  0  0
  206.0267  139.6959  126.0226 C   0  0  0  0  0  0  0  0  0  0  0  0
  205.6630  141.0122  126.0383 C   0  0  0  0  0  0  0  0  0  0  0  0
  207.4739  133.3864  136.1559 C   0  0  0  0  0  0  0  0  0  0  0  0
  207.0246  132.2293  136.8240 C   0  0  0  0  0  0  0  0  0  0  0  0
  205.7690  132.1429  137.3611 C   0  0  0  0  0  0  0  0  0  0  0  0
  205.1028  131.1971  138.0291 N   0  0  0  0  0  0  0  0  0  0  0  0
  1  2  1  0
  2  3  2  0
  3  4  1  0
  4  5  1  0
  5  6  2  0
  6  7  1  0
  6  8  1  0
  8  9  2  0
  9 10  1  0
 10 11  1  0
 11 12  1  0
 12 13  1  6
 13 14  1  0
 12 15  1  0
 15 16  2  0
 10 17  1  0
 17 18  2  0
 17 19  1  0
 19 20  2  0
 20 21  1  0
 21 22  2  0
 22 23  1  0
 23 24  1  0
 24 25  1  0
 25 26  2  0
 25 27  1  0
 27 28  1  0
 28 29  2  0
 29 30  1  0
 30 31  2  0
 31 32  1  0
 32 33  1  0
 33 34  2  0
 34 35  1  0
 35 36  2  0
 33 37  1  0
 37 38  2  0
 37 39  1  0
 39 40  1  0
 40 41  1  0
 41 42  1  6
 42 43  1  0
 41 44  1  0
 44 45  2  0
 45 46  1  0
 46 47  1  0
 46 48  2  0
 48 49  1  0
 49 50  1  0
 50 51  2  0
 51 52  1  0
 51 53  1  0
 53 54  2  0
 23 55  2  0
 55 56  1  0
 56 57  2  0
 57 58  1  0
 16  2  1  0
 58 19  1  0
 16  5  1  0
 57 21  1  0
 15  9  1  0
 36 28  1  0
 54 39  1  0
 35 31  1  0
 54 44  1  0
 50 45  1  0
M  END
$$$$
