
     RDKit          3D

 58 67  0  0  0  0  0  0  0  0999 V2000
  134.1619  142.9765  121.4402 C   0  0  0  0  0  0  0  0  0  0  0  0
  135.1014  141.8339  121.6554 C   0  0  0  0  0  0  0  0  0  0  0  0
  136.0500  141.3793  120.7632 C   0  0  0  0  0  0  0  0  0  0  0  0
  136.6573  140.3418  121.3642 N   0  0  0  0  0  0  0  0  0  0  0  0
  136.1501  140.1166  122.5767 C   0  0  0  0  0  0  0  0  0  0  0  0
  136.4750  139.1677  123.5255 C   0  0  0  0  0  0  0  0  0  0  0  0
  137.4748  138.2475  123.2740 O   0  0  0  0  0  0  0  0  0  0  0  0
  135.7967  139.1573  124.7032 C   0  0  0  0  0  0  0  0  0  0  0  0
  134.7893  140.0964  124.9372 C   0  0  0  0  0  0  0  0  0  0  0  0
  133.9676  140.2780  126.0736 N   0  0  0  0  0  0  0  0  0  0  0  0
  132.7650  140.9647  125.5910 C   0  0  0  0  0  0  0  0  0  0  0  0
  133.3635  141.8817  124.5369 C   0  0  1  0  0  0  0  0  0  0  0  0
  133.9180  143.0834  125.2624 C   0  0  0  0  0  0  0  0  0  0  0  0
  135.6963  143.0351  125.1942 Cl  0  0  0  0  0  0  0  0  0  0  0  0
  134.4750  141.0435  123.9716 C   0  0  0  0  0  0  0  0  0  0  0  0
  135.1583  141.0584  122.7777 C   0  0  0  0  0  0  0  0  0  0  0  0
  134.2092  139.8919  127.4154 C   0  0  0  0  0  0  0  0  0  0  0  0
  135.3670  140.0332  127.8764 O   0  0  0  0  0  0  0  0  0  0  0  0
  133.1698  139.3426  128.2686 C   0  0  0  0  0  0  0  0  0  0  0  0
  132.6357  140.0056  129.3768 C   0  0  0  0  0  0  0  0  0  0  0  0
  131.6570  139.2020  129.9727 C   0  0  0  0  0  0  0  0  0  0  0  0
  130.8379  139.3536  131.0539 C   0  0  0  0  0  0  0  0  0  0  0  0
  129.9268  138.3761  131.4429 C   0  0  0  0  0  0  0  0  0  0  0  0
  129.1240  138.5974  132.6076 N   0  0  0  0  0  0  0  0  0  0  0  0
  129.0962  139.7833  133.3239 C   0  0  0  0  0  0  0  0  0  0  0  0
  128.1383  140.1050  134.0927 O   0  0  0  0  0  0  0  0  0  0  0  0
  130.1454  140.7646  133.2744 N   0  0  0  0  0  0  0  0  0  0  0  0
  129.9990  141.9272  134.0776 C   0  0  0  0  0  0  0  0  0  0  0  0
  130.4918  141.9572  135.3792 C   0  0  0  0  0  0  0  0  0  0  0  0
  130.3984  143.1407  136.0721 C   0  0  0  0  0  0  0  0  0  0  0  0
  129.8419  144.2649  135.5135 C   0  0  0  0  0  0  0  0  0  0  0  0
  129.6695  145.5103  135.9664 N   0  0  0  0  0  0  0  0  0  0  0  0
  129.0849  146.3019  135.0218 C   0  0  0  0  0  0  0  0  0  0  0  0
  128.8820  145.5141  133.9357 C   0  0  0  0  0  0  0  0  0  0  0  0
  129.3435  144.2454  134.2141 C   0  0  0  0  0  0  0  0  0  0  0  0
  129.4372  143.0605  133.5235 C   0  0  0  0  0  0  0  0  0  0  0  0
  128.8415  147.7143  135.2653 C   0  0  0  0  0  0  0  0  0  0  0  0
  129.7952  148.5017  134.9494 O   0  0  0  0  0  0  0  0  0  0  0  0
  127.7021  148.2638  135.7973 N   0  0  0  0  0  0  0  0  0  0  0  0
  126.5485  147.6562  136.5474 C   0  0  0  0  0  0  0  0  0  0  0  0
  125.5286  148.2702  135.4951 C   0  0  1  0  0  0  0  0  0  0  0  0
  124.3860  147.4823  135.3329 C   0  0  0  0  0  0  0  0  0  0  0  0
  123.0695  148.2592  134.4516 Cl  0  0  0  0  0  0  0  0  0  0  0  0
  125.8430  149.6430  135.7400 C   0  0  0  0  0  0  0  0  0  0  0  0
  125.2047  150.8659  135.8627 C   0  0  0  0  0  0  0  0  0  0  0  0
  123.8870  151.2134  135.9852 C   0  0  0  0  0  0  0  0  0  0  0  0
  122.6930  150.3576  136.0595 C   0  0  0  0  0  0  0  0  0  0  0  0
  123.8811  152.6180  136.1246 C   0  0  0  0  0  0  0  0  0  0  0  0
  125.1310  153.0514  136.0882 N   0  0  0  0  0  0  0  0  0  0  0  0
  125.9979  152.0045  135.9290 C   0  0  0  0  0  0  0  0  0  0  0  0
  127.3763  152.0086  135.8885 C   0  0  0  0  0  0  0  0  0  0  0  0
  128.0909  153.1722  135.9563 O   0  0  0  0  0  0  0  0  0  0  0  0
  128.0009  150.7911  135.7778 C   0  0  0  0  0  0  0  0  0  0  0  0
  127.2688  149.6403  135.7088 C   0  0  0  0  0  0  0  0  0  0  0  0
  129.8924  137.2452  130.6813 C   0  0  0  0  0  0  0  0  0  0  0  0
  130.7394  137.0904  129.5652 C   0  0  0  0  0  0  0  0  0  0  0  0
  131.6318  138.0580  129.1916 C   0  0  0  0  0  0  0  0  0  0  0  0
  132.5262  138.1724  128.2059 N   0  0  0  0  0  0  0  0  0  0  0  0
  1  2  1  0
  2  3  2  0
  3  4  1  0
  4  5  1  0
  5  6  2  0
  6  7  1  0
  6  8  1  0
  8  9  2  0
  9 10  1  0
 10 11  1  0
 11 12  1  0
 12 13  1  1
 13 14  1  0
 12 15  1  0
 15 16  2  0
 10 17  1  0
 17 18  2  0
 17 19  1  0
 19 20  2  0
 20 21  1  0
 21 22  2  0
 22 23  1  0
 23 24  1  0
 24 25  1  0
 25 26  2  0
 25 27  1  0
 27 28  1  0
 28 29  2  0
 29 30  1  0
 30 31  2  0
 31 32  1  0
 32 33  1  0
 33 34  2  0
 34 35  1  0
 35 36  2  0
 33 37  1  0
 37 38  2  0
 37 39  1  0
 39 40  1  0
 40 41  1  0
 41 42  1  1
 42 43  1  0
 41 44  1  0
 44 45  2  0
 45 46  1  0
 46 47  1  0
 46 48  2  0
 48 49  1  0
 49 50  1  0
 50 51  2  0
 51 52  1  0
 51 53  1  0
 53 54  2  0
 23 55  2  0
 55 56  1  0
 56 57  2  0
 57 58  1  0
 16  2  1  0
 58 19  1  0
 16  5  1  0
 57 21  1  0
 15  9  1  0
 36 28  1  0
 54 39  1  0
 35 31  1  0
 54 44  1  0
 50 45  1  0
M  END
$$$$
