
     RDKit          3D

 58 67  0  0  0  0  0  0  0  0999 V2000
  212.8150  143.6736  128.1738 C   0  0  0  0  0  0  0  0  0  0  0  0
  212.4489  144.4239  129.4139 C   0  0  0  0  0  0  0  0  0  0  0  0
  212.5835  145.7817  129.6148 C   0  0  0  0  0  0  0  0  0  0  0  0
  212.1397  146.0180  130.8613 N   0  0  0  0  0  0  0  0  0  0  0  0
  211.7352  144.8947  131.4551 C   0  0  0  0  0  0  0  0  0  0  0  0
  211.2122  144.6813  132.7150 C   0  0  0  0  0  0  0  0  0  0  0  0
  211.0434  145.7409  133.5858 O   0  0  0  0  0  0  0  0  0  0  0  0
  210.8691  143.4174  133.0783 C   0  0  0  0  0  0  0  0  0  0  0  0
  211.0481  142.3604  132.1828 C   0  0  0  0  0  0  0  0  0  0  0  0
  210.7605  140.9846  132.3374 N   0  0  0  0  0  0  0  0  0  0  0  0
  211.6360  140.2849  131.3917 C   0  0  0  0  0  0  0  0  0  0  0  0
  211.6354  141.2609  130.2265 C   0  0  1  0  0  0  0  0  0  0  0  0
  210.3701  141.0107  129.4431 C   0  0  0  0  0  0  0  0  0  0  0  0
  209.0009  141.7701  130.2905 Cl  0  0  0  0  0  0  0  0  0  0  0  0
  211.5761  142.5928  130.9196 C   0  0  0  0  0  0  0  0  0  0  0  0
  211.9252  143.8701  130.5467 C   0  0  0  0  0  0  0  0  0  0  0  0
  209.8339  140.3635  133.2113 C   0  0  0  0  0  0  0  0  0  0  0  0
  209.0871  141.0947  133.9047 O   0  0  0  0  0  0  0  0  0  0  0  0
  209.7200  138.9203  133.3304 C   0  0  0  0  0  0  0  0  0  0  0  0
  208.8638  138.2743  134.2262 C   0  0  0  0  0  0  0  0  0  0  0  0
  208.9982  136.8888  134.0816 C   0  0  0  0  0  0  0  0  0  0  0  0
  208.4153  135.8133  134.6870 C   0  0  0  0  0  0  0  0  0  0  0  0
  208.7340  134.5020  134.3470 C   0  0  0  0  0  0  0  0  0  0  0  0
  208.1009  133.4275  135.0502 N   0  0  0  0  0  0  0  0  0  0  0  0
  206.9113  132.8325  134.6614 C   0  0  0  0  0  0  0  0  0  0  0  0
  206.6422  132.5480  133.4536 O   0  0  0  0  0  0  0  0  0  0  0  0
  205.8665  132.4734  135.5809 N   0  0  0  0  0  0  0  0  0  0  0  0
  205.1694  131.2582  135.3449 C   0  0  0  0  0  0  0  0  0  0  0  0
  204.9300  130.3640  136.3845 C   0  0  0  0  0  0  0  0  0  0  0  0
  204.1728  129.2502  136.1094 C   0  0  0  0  0  0  0  0  0  0  0  0
  203.6614  129.0134  134.8572 C   0  0  0  0  0  0  0  0  0  0  0  0
  202.8904  128.0399  134.3634 N   0  0  0  0  0  0  0  0  0  0  0  0
  202.6117  128.2525  133.0452 C   0  0  0  0  0  0  0  0  0  0  0  0
  203.2389  129.4062  132.7035 C   0  0  0  0  0  0  0  0  0  0  0  0
  203.8969  129.8993  133.8098 C   0  0  0  0  0  0  0  0  0  0  0  0
  204.6551  131.0119  134.0871 C   0  0  0  0  0  0  0  0  0  0  0  0
  201.7463  127.3518  132.3013 C   0  0  0  0  0  0  0  0  0  0  0  0
  200.7496  126.8843  132.9474 O   0  0  0  0  0  0  0  0  0  0  0  0
  201.9054  126.9650  130.9943 N   0  0  0  0  0  0  0  0  0  0  0  0
  202.7830  127.4885  129.8906 C   0  0  0  0  0  0  0  0  0  0  0  0
  201.5109  127.6841  128.9589 C   0  0  1  0  0  0  0  0  0  0  0  0
  201.6599  128.7467  128.0638 C   0  0  0  0  0  0  0  0  0  0  0  0
  203.3076  129.0040  127.4874 Cl  0  0  0  0  0  0  0  0  0  0  0  0
  201.1230  126.3090  128.9161 C   0  0  0  0  0  0  0  0  0  0  0  0
  200.6406  125.3765  128.0129 C   0  0  0  0  0  0  0  0  0  0  0  0
  200.5171  125.3864  126.6502 C   0  0  0  0  0  0  0  0  0  0  0  0
  200.9044  126.4215  125.6796 C   0  0  0  0  0  0  0  0  0  0  0  0
  200.0029  124.1164  126.3111 C   0  0  0  0  0  0  0  0  0  0  0  0
  199.8444  123.4145  127.4218 N   0  0  0  0  0  0  0  0  0  0  0  0
  200.2273  124.1477  128.5121 C   0  0  0  0  0  0  0  0  0  0  0  0
  200.2674  123.7829  129.8414 C   0  0  0  0  0  0  0  0  0  0  0  0
  199.8396  122.5535  130.2594 O   0  0  0  0  0  0  0  0  0  0  0  0
  200.7572  124.7094  130.7282 C   0  0  0  0  0  0  0  0  0  0  0  0
  201.1770  125.9332  130.2907 C   0  0  0  0  0  0  0  0  0  0  0  0
  209.6691  134.3424  133.3670 C   0  0  0  0  0  0  0  0  0  0  0  0
  210.2702  135.4544  132.7431 C   0  0  0  0  0  0  0  0  0  0  0  0
  209.9494  136.7398  133.0853 C   0  0  0  0  0  0  0  0  0  0  0  0
  210.3498  137.9442  132.6685 N   0  0  0  0  0  0  0  0  0  0  0  0
  1  2  1  0
  2  3  2  0
  3  4  1  0
  4  5  1  0
  5  6  2  0
  6  7  1  0
  6  8  1  0
  8  9  2  0
  9 10  1  0
 10 11  1  0
 11 12  1  0
 12 13  1  6
 13 14  1  0
 12 15  1  0
 15 16  2  0
 10 17  1  0
 17 18  2  0
 17 19  1  0
 19 20  2  0
 20 21  1  0
 21 22  2  0
 22 23  1  0
 23 24  1  0
 24 25  1  0
 25 26  2  0
 25 27  1  0
 27 28  1  0
 28 29  2  0
 29 30  1  0
 30 31  2  0
 31 32  1  0
 32 33  1  0
 33 34  2  0
 34 35  1  0
 35 36  2  0
 33 37  1  0
 37 38  2  0
 37 39  1  0
 39 40  1  0
 40 41  1  0
 41 42  1  6
 42 43  1  0
 41 44  1  0
 44 45  2  0
 45 46  1  0
 46 47  1  0
 46 48  2  0
 48 49  1  0
 49 50  1  0
 50 51  2  0
 51 52  1  0
 51 53  1  0
 53 54  2  0
 23 55  2  0
 55 56  1  0
 56 57  2  0
 57 58  1  0
 16  2  1  0
 58 19  1  0
 16  5  1  0
 57 21  1  0
 15  9  1  0
 36 28  1  0
 54 39  1  0
 35 31  1  0
 54 44  1  0
 50 45  1  0
M  END
$$$$
