
     RDKit          3D

 58 67  0  0  0  0  0  0  0  0999 V2000
  136.1075  142.3241  118.8341 C   0  0  0  0  0  0  0  0  0  0  0  0
  136.5333  141.6797  120.1140 C   0  0  0  0  0  0  0  0  0  0  0  0
  137.3473  140.5733  120.2382 C   0  0  0  0  0  0  0  0  0  0  0  0
  137.4596  140.3418  121.5575 N   0  0  0  0  0  0  0  0  0  0  0  0
  136.7679  141.2326  122.2687 C   0  0  0  0  0  0  0  0  0  0  0  0
  136.6113  141.3674  123.6338 C   0  0  0  0  0  0  0  0  0  0  0  0
  137.2282  140.4800  124.4950 O   0  0  0  0  0  0  0  0  0  0  0  0
  135.8440  142.3831  124.1098 C   0  0  0  0  0  0  0  0  0  0  0  0
  135.2289  143.2691  123.2220 C   0  0  0  0  0  0  0  0  0  0  0  0
  134.4040  144.3870  123.4850 N   0  0  0  0  0  0  0  0  0  0  0  0
  133.5999  144.5834  122.2744 C   0  0  0  0  0  0  0  0  0  0  0  0
  134.6101  144.2196  121.1986 C   0  0  1  0  0  0  0  0  0  0  0  0
  135.4765  145.4357  120.9789 C   0  0  0  0  0  0  0  0  0  0  0  0
  137.1569  144.9126  120.7105 Cl  0  0  0  0  0  0  0  0  0  0  0  0
  135.3966  143.1185  121.8518 C   0  0  0  0  0  0  0  0  0  0  0  0
  136.1722  142.0920  121.3645 C   0  0  0  0  0  0  0  0  0  0  0  0
  134.3301  145.1804  124.6567 C   0  0  0  0  0  0  0  0  0  0  0  0
  134.4252  146.4256  124.5397 O   0  0  0  0  0  0  0  0  0  0  0  0
  134.1490  144.6056  125.9784 C   0  0  0  0  0  0  0  0  0  0  0  0
  132.9044  144.2945  126.5324 C   0  0  0  0  0  0  0  0  0  0  0  0
  133.0857  143.7565  127.8116 C   0  0  0  0  0  0  0  0  0  0  0  0
  132.2344  143.2921  128.7722 C   0  0  0  0  0  0  0  0  0  0  0  0
  132.6849  142.7942  129.9911 C   0  0  0  0  0  0  0  0  0  0  0  0
  131.7267  142.3541  130.9596 N   0  0  0  0  0  0  0  0  0  0  0  0
  131.2563  141.0544  131.0591 C   0  0  0  0  0  0  0  0  0  0  0  0
  131.9911  140.0362  130.8714 O   0  0  0  0  0  0  0  0  0  0  0  0
  129.8959  140.7263  131.3878 N   0  0  0  0  0  0  0  0  0  0  0  0
  129.6612  139.5121  132.0870 C   0  0  0  0  0  0  0  0  0  0  0  0
  128.9558  139.5091  133.2870 C   0  0  0  0  0  0  0  0  0  0  0  0
  128.6847  138.2929  133.8675 C   0  0  0  0  0  0  0  0  0  0  0  0
  129.0880  137.1116  133.2953 C   0  0  0  0  0  0  0  0  0  0  0  0
  128.9217  135.8327  133.6460 N   0  0  0  0  0  0  0  0  0  0  0  0
  129.4864  134.9933  132.7311 C   0  0  0  0  0  0  0  0  0  0  0  0
  130.0300  135.7841  131.7716 C   0  0  0  0  0  0  0  0  0  0  0  0
  129.7962  137.1029  132.0972 C   0  0  0  0  0  0  0  0  0  0  0  0
  130.0668  138.3204  131.5191 C   0  0  0  0  0  0  0  0  0  0  0  0
  129.3908  133.5494  132.8707 C   0  0  0  0  0  0  0  0  0  0  0  0
  129.6803  132.8732  131.8274 O   0  0  0  0  0  0  0  0  0  0  0  0
  129.0205  132.8638  134.0003 N   0  0  0  0  0  0  0  0  0  0  0  0
  129.7713  131.9101  134.8888 C   0  0  0  0  0  0  0  0  0  0  0  0
  128.6397  130.8137  134.6842 C   0  0  1  0  0  0  0  0  0  0  0  0
  129.1381  129.5099  134.7490 C   0  0  0  0  0  0  0  0  0  0  0  0
  129.6761  129.0014  136.3506 Cl  0  0  0  0  0  0  0  0  0  0  0  0
  127.5704  131.5691  135.2582 C   0  0  0  0  0  0  0  0  0  0  0  0
  126.4738  131.3859  136.0842 C   0  0  0  0  0  0  0  0  0  0  0  0
  126.0773  130.3443  136.8777 C   0  0  0  0  0  0  0  0  0  0  0  0
  126.7373  129.0550  137.1346 C   0  0  0  0  0  0  0  0  0  0  0  0
  124.8970  130.7855  137.5137 C   0  0  0  0  0  0  0  0  0  0  0  0
  124.6341  132.0176  137.1083 N   0  0  0  0  0  0  0  0  0  0  0  0
  125.5834  132.4436  136.2193 C   0  0  0  0  0  0  0  0  0  0  0  0
  125.7127  133.6675  135.5971 C   0  0  0  0  0  0  0  0  0  0  0  0
  124.7921  134.6623  135.7765 O   0  0  0  0  0  0  0  0  0  0  0  0
  126.8083  133.8440  134.7889 C   0  0  0  0  0  0  0  0  0  0  0  0
  127.7150  132.8366  134.6208 C   0  0  0  0  0  0  0  0  0  0  0  0
  134.0355  142.7932  130.1812 C   0  0  0  0  0  0  0  0  0  0  0  0
  134.9130  143.2734  129.1880 C   0  0  0  0  0  0  0  0  0  0  0  0
  134.4592  143.7610  127.9928 C   0  0  0  0  0  0  0  0  0  0  0  0
  135.0500  144.2624  126.9046 N   0  0  0  0  0  0  0  0  0  0  0  0
  1  2  1  0
  2  3  2  0
  3  4  1  0
  4  5  1  0
  5  6  2  0
  6  7  1  0
  6  8  1  0
  8  9  2  0
  9 10  1  0
 10 11  1  0
 11 12  1  0
 12 13  1  1
 13 14  1  0
 12 15  1  0
 15 16  2  0
 10 17  1  0
 17 18  2  0
 17 19  1  0
 19 20  2  0
 20 21  1  0
 21 22  2  0
 22 23  1  0
 23 24  1  0
 24 25  1  0
 25 26  2  0
 25 27  1  0
 27 28  1  0
 28 29  2  0
 29 30  1  0
 30 31  2  0
 31 32  1  0
 32 33  1  0
 33 34  2  0
 34 35  1  0
 35 36  2  0
 33 37  1  0
 37 38  2  0
 37 39  1  0
 39 40  1  0
 40 41  1  0
 41 42  1  1
 42 43  1  0
 41 44  1  0
 44 45  2  0
 45 46  1  0
 46 47  1  0
 46 48  2  0
 48 49  1  0
 49 50  1  0
 50 51  2  0
 51 52  1  0
 51 53  1  0
 53 54  2  0
 23 55  2  0
 55 56  1  0
 56 57  2  0
 57 58  1  0
 16  2  1  0
 58 19  1  0
 16  5  1  0
 57 21  1  0
 15  9  1  0
 36 28  1  0
 54 39  1  0
 35 31  1  0
 54 44  1  0
 50 45  1  0
M  END
$$$$
