
     RDKit          3D

 58 67  0  0  0  0  0  0  0  0999 V2000
  176.9086  167.4603  119.8531 C   0  0  0  0  0  0  0  0  0  0  0  0
  175.9405  167.3083  118.7242 C   0  0  0  0  0  0  0  0  0  0  0  0
  175.4834  168.3161  117.9009 C   0  0  0  0  0  0  0  0  0  0  0  0
  174.6332  167.7333  117.0383 N   0  0  0  0  0  0  0  0  0  0  0  0
  174.5279  166.4241  117.2680 C   0  0  0  0  0  0  0  0  0  0  0  0
  173.7803  165.4559  116.6279 C   0  0  0  0  0  0  0  0  0  0  0  0
  172.9686  165.7962  115.5625 O   0  0  0  0  0  0  0  0  0  0  0  0
  173.8585  164.1708  117.0634 C   0  0  0  0  0  0  0  0  0  0  0  0
  174.6851  163.8482  118.1423 C   0  0  0  0  0  0  0  0  0  0  0  0
  174.9271  162.5967  118.7544 N   0  0  0  0  0  0  0  0  0  0  0  0
  175.3746  162.8991  120.1179 C   0  0  0  0  0  0  0  0  0  0  0  0
  176.1936  164.1567  119.8772 C   0  0  1  0  0  0  0  0  0  0  0  0
  177.5508  163.7116  119.3898 C   0  0  0  0  0  0  0  0  0  0  0  0
  178.3657  165.0847  118.6025 Cl  0  0  0  0  0  0  0  0  0  0  0  0
  175.4299  164.8347  118.7751 C   0  0  0  0  0  0  0  0  0  0  0  0
  175.3543  166.1371  118.3384 C   0  0  0  0  0  0  0  0  0  0  0  0
  174.7790  161.2974  118.2088 C   0  0  0  0  0  0  0  0  0  0  0  0
  175.5019  160.3766  118.6589 O   0  0  0  0  0  0  0  0  0  0  0  0
  173.8259  160.9977  117.1543 C   0  0  0  0  0  0  0  0  0  0  0  0
  173.8937  161.5299  115.8640 C   0  0  0  0  0  0  0  0  0  0  0  0
  172.8294  161.0368  115.1006 C   0  0  0  0  0  0  0  0  0  0  0  0
  172.4253  161.2213  113.8100 C   0  0  0  0  0  0  0  0  0  0  0  0
  171.3006  160.5936  113.2831 C   0  0  0  0  0  0  0  0  0  0  0  0
  170.9243  160.8629  111.9282 N   0  0  0  0  0  0  0  0  0  0  0  0
  171.0310  162.1030  111.3191 C   0  0  0  0  0  0  0  0  0  0  0  0
  171.8473  162.9956  111.7050 O   0  0  0  0  0  0  0  0  0  0  0  0
  170.2359  162.5032  110.1904 N   0  0  0  0  0  0  0  0  0  0  0  0
  170.6860  163.6141  109.4277 C   0  0  0  0  0  0  0  0  0  0  0  0
  169.8382  164.6873  109.1685 C   0  0  0  0  0  0  0  0  0  0  0  0
  170.3611  165.7701  108.5024 C   0  0  0  0  0  0  0  0  0  0  0  0
  171.6736  165.8082  108.1005 C   0  0  0  0  0  0  0  0  0  0  0  0
  172.4033  166.7394  107.4789 N   0  0  0  0  0  0  0  0  0  0  0  0
  173.6935  166.3276  107.3165 C   0  0  0  0  0  0  0  0  0  0  0  0
  173.7688  165.0855  107.8576 C   0  0  0  0  0  0  0  0  0  0  0  0
  172.5294  164.7397  108.3519 C   0  0  0  0  0  0  0  0  0  0  0  0
  172.0039  163.6577  109.0174 C   0  0  0  0  0  0  0  0  0  0  0  0
  174.6918  167.1926  106.7095 C   0  0  0  0  0  0  0  0  0  0  0  0
  174.9056  168.2972  107.3124 O   0  0  0  0  0  0  0  0  0  0  0  0
  175.4067  166.9335  105.5671 N   0  0  0  0  0  0  0  0  0  0  0  0
  176.3551  167.7784  104.7614 C   0  0  0  0  0  0  0  0  0  0  0  0
  175.4884  167.5219  103.4546 C   0  0  1  0  0  0  0  0  0  0  0  0
  175.5394  168.5929  102.5585 C   0  0  0  0  0  0  0  0  0  0  0  0
  177.1325  169.3284  102.3732 Cl  0  0  0  0  0  0  0  0  0  0  0  0
  175.6552  166.1026  103.4201 C   0  0  0  0  0  0  0  0  0  0  0  0
  175.8701  165.0876  102.5028 C   0  0  0  0  0  0  0  0  0  0  0  0
  176.2157  165.0950  101.1789 C   0  0  0  0  0  0  0  0  0  0  0  0
  176.5095  166.2306  100.2914 C   0  0  0  0  0  0  0  0  0  0  0  0
  176.3342  163.7365  100.8147 C   0  0  0  0  0  0  0  0  0  0  0  0
  176.0740  162.9903  101.8763 N   0  0  0  0  0  0  0  0  0  0  0  0
  175.7808  163.7776  102.9566 C   0  0  0  0  0  0  0  0  0  0  0  0
  175.5003  163.4107  104.2560 C   0  0  0  0  0  0  0  0  0  0  0  0
  175.4258  162.0974  104.6286 O   0  0  0  0  0  0  0  0  0  0  0  0
  175.2995  164.4235  105.1608 C   0  0  0  0  0  0  0  0  0  0  0  0
  175.3756  165.7292  104.7678 C   0  0  0  0  0  0  0  0  0  0  0  0
  170.6134  159.7748  114.1302 C   0  0  0  0  0  0  0  0  0  0  0  0
  171.0321  159.5857  115.4628 C   0  0  0  0  0  0  0  0  0  0  0  0
  172.1398  160.2081  115.9708 C   0  0  0  0  0  0  0  0  0  0  0  0
  172.7475  160.2075  117.1604 N   0  0  0  0  0  0  0  0  0  0  0  0
  1  2  1  0
  2  3  2  0
  3  4  1  0
  4  5  1  0
  5  6  2  0
  6  7  1  0
  6  8  1  0
  8  9  2  0
  9 10  1  0
 10 11  1  0
 11 12  1  0
 12 13  1  6
 13 14  1  0
 12 15  1  0
 15 16  2  0
 10 17  1  0
 17 18  2  0
 17 19  1  0
 19 20  2  0
 20 21  1  0
 21 22  2  0
 22 23  1  0
 23 24  1  0
 24 25  1  0
 25 26  2  0
 25 27  1  0
 27 28  1  0
 28 29  2  0
 29 30  1  0
 30 31  2  0
 31 32  1  0
 32 33  1  0
 33 34  2  0
 34 35  1  0
 35 36  2  0
 33 37  1  0
 37 38  2  0
 37 39  1  0
 39 40  1  0
 40 41  1  0
 41 42  1  6
 42 43  1  0
 41 44  1  0
 44 45  2  0
 45 46  1  0
 46 47  1  0
 46 48  2  0
 48 49  1  0
 49 50  1  0
 50 51  2  0
 51 52  1  0
 51 53  1  0
 53 54  2  0
 23 55  2  0
 55 56  1  0
 56 57  2  0
 57 58  1  0
 16  2  1  0
 58 19  1  0
 16  5  1  0
 57 21  1  0
 15  9  1  0
 36 28  1  0
 54 39  1  0
 35 31  1  0
 54 44  1  0
 50 45  1  0
M  END
$$$$
