
     RDKit          3D

 58 67  0  0  0  0  0  0  0  0999 V2000
  184.4586  163.1251  121.8371 C   0  0  0  0  0  0  0  0  0  0  0  0
  185.6305  163.7534  121.1542 C   0  0  0  0  0  0  0  0  0  0  0  0
  185.6774  165.0235  120.6187 C   0  0  0  0  0  0  0  0  0  0  0  0
  186.9119  165.1646  120.1061 N   0  0  0  0  0  0  0  0  0  0  0  0
  187.6424  164.0638  120.2860 C   0  0  0  0  0  0  0  0  0  0  0  0
  188.9447  163.7797  119.9260 C   0  0  0  0  0  0  0  0  0  0  0  0
  189.7031  164.7234  119.2598 O   0  0  0  0  0  0  0  0  0  0  0  0
  189.4618  162.5622  120.2381 C   0  0  0  0  0  0  0  0  0  0  0  0
  188.6780  161.6224  120.9117 C   0  0  0  0  0  0  0  0  0  0  0  0
  189.0016  160.3142  121.3400 N   0  0  0  0  0  0  0  0  0  0  0  0
  187.7242  159.6021  121.4481 C   0  0  0  0  0  0  0  0  0  0  0  0
  186.8216  160.7114  121.9627 C   0  0  1  0  0  0  0  0  0  0  0  0
  187.0453  160.8056  123.4522 C   0  0  0  0  0  0  0  0  0  0  0  0
  186.7177  162.4721  123.9859 Cl  0  0  0  0  0  0  0  0  0  0  0  0
  187.3697  161.9245  121.2659 C   0  0  0  0  0  0  0  0  0  0  0  0
  186.8412  163.1554  120.9523 C   0  0  0  0  0  0  0  0  0  0  0  0
  190.2761  159.7595  121.6156 C   0  0  0  0  0  0  0  0  0  0  0  0
  191.1600  159.8286  120.7284 O   0  0  0  0  0  0  0  0  0  0  0  0
  190.5914  159.1189  122.8806 C   0  0  0  0  0  0  0  0  0  0  0  0
  190.2634  159.6513  124.1303 C   0  0  0  0  0  0  0  0  0  0  0  0
  190.7070  158.7851  125.1361 C   0  0  0  0  0  0  0  0  0  0  0  0
  190.6503  158.8106  126.4996 C   0  0  0  0  0  0  0  0  0  0  0  0
  191.1810  157.7938  127.2878 C   0  0  0  0  0  0  0  0  0  0  0  0
  191.1090  157.9089  128.7131 N   0  0  0  0  0  0  0  0  0  0  0  0
  192.0335  158.5887  129.4899 C   0  0  0  0  0  0  0  0  0  0  0  0
  192.6511  159.6217  129.0856 O   0  0  0  0  0  0  0  0  0  0  0  0
  192.3837  158.1992  130.8286 N   0  0  0  0  0  0  0  0  0  0  0  0
  191.3705  158.2695  131.8219 C   0  0  0  0  0  0  0  0  0  0  0  0
  191.0196  157.1418  132.5587 C   0  0  0  0  0  0  0  0  0  0  0  0
  190.0965  157.2964  133.5655 C   0  0  0  0  0  0  0  0  0  0  0  0
  189.5311  158.5153  133.8486 C   0  0  0  0  0  0  0  0  0  0  0  0
  188.6542  158.9131  134.7753 N   0  0  0  0  0  0  0  0  0  0  0  0
  188.4115  160.2520  134.6817 C   0  0  0  0  0  0  0  0  0  0  0  0
  189.1675  160.7061  133.6505 C   0  0  0  0  0  0  0  0  0  0  0  0
  189.8726  159.6488  133.1167 C   0  0  0  0  0  0  0  0  0  0  0  0
  190.7952  159.4915  132.1098 C   0  0  0  0  0  0  0  0  0  0  0  0
  187.5273  160.9266  135.6180 C   0  0  0  0  0  0  0  0  0  0  0  0
  186.2859  160.9001  135.3223 O   0  0  0  0  0  0  0  0  0  0  0  0
  187.9023  161.5791  136.7656 N   0  0  0  0  0  0  0  0  0  0  0  0
  189.1481  161.5015  137.6048 C   0  0  0  0  0  0  0  0  0  0  0  0
  188.2728  161.1814  138.8917 C   0  0  1  0  0  0  0  0  0  0  0  0
  188.9471  160.3747  139.8120 C   0  0  0  0  0  0  0  0  0  0  0  0
  190.1146  161.2245  140.8260 Cl  0  0  0  0  0  0  0  0  0  0  0  0
  187.5320  162.4039  138.8972 C   0  0  0  0  0  0  0  0  0  0  0  0
  187.0542  163.3439  139.7951 C   0  0  0  0  0  0  0  0  0  0  0  0
  187.2967  163.5606  141.1241 C   0  0  0  0  0  0  0  0  0  0  0  0
  188.2025  162.8521  142.0413 C   0  0  0  0  0  0  0  0  0  0  0  0
  186.5464  164.7080  141.4600 C   0  0  0  0  0  0  0  0  0  0  0  0
  185.9108  165.1287  140.3781 N   0  0  0  0  0  0  0  0  0  0  0  0
  186.1912  164.3190  139.3111 C   0  0  0  0  0  0  0  0  0  0  0  0
  185.7787  164.4261  137.9995 C   0  0  0  0  0  0  0  0  0  0  0  0
  184.9233  165.4137  137.5966 O   0  0  0  0  0  0  0  0  0  0  0  0
  186.2659  163.4967  137.1143 C   0  0  0  0  0  0  0  0  0  0  0  0
  187.1174  162.5164  137.5374 C   0  0  0  0  0  0  0  0  0  0  0  0
  191.7677  156.7577  126.6226 C   0  0  0  0  0  0  0  0  0  0  0  0
  191.8254  156.7333  125.2143 C   0  0  0  0  0  0  0  0  0  0  0  0
  191.3004  157.7387  124.4489 C   0  0  0  0  0  0  0  0  0  0  0  0
  191.2158  157.9644  123.1350 N   0  0  0  0  0  0  0  0  0  0  0  0
  1  2  1  0
  2  3  2  0
  3  4  1  0
  4  5  1  0
  5  6  2  0
  6  7  1  0
  6  8  1  0
  8  9  2  0
  9 10  1  0
 10 11  1  0
 11 12  1  0
 12 13  1  1
 13 14  1  0
 12 15  1  0
 15 16  2  0
 10 17  1  0
 17 18  2  0
 17 19  1  0
 19 20  2  0
 20 21  1  0
 21 22  2  0
 22 23  1  0
 23 24  1  0
 24 25  1  0
 25 26  2  0
 25 27  1  0
 27 28  1  0
 28 29  2  0
 29 30  1  0
 30 31  2  0
 31 32  1  0
 32 33  1  0
 33 34  2  0
 34 35  1  0
 35 36  2  0
 33 37  1  0
 37 38  2  0
 37 39  1  0
 39 40  1  0
 40 41  1  0
 41 42  1  1
 42 43  1  0
 41 44  1  0
 44 45  2  0
 45 46  1  0
 46 47  1  0
 46 48  2  0
 48 49  1  0
 49 50  1  0
 50 51  2  0
 51 52  1  0
 51 53  1  0
 53 54  2  0
 23 55  2  0
 55 56  1  0
 56 57  2  0
 57 58  1  0
 16  2  1  0
 58 19  1  0
 16  5  1  0
 57 21  1  0
 15  9  1  0
 36 28  1  0
 54 39  1  0
 35 31  1  0
 54 44  1  0
 50 45  1  0
M  END
$$$$
