
     RDKit          3D

 58 67  0  0  0  0  0  0  0  0999 V2000
  131.3710  153.2071  134.0029 C   0  0  0  0  0  0  0  0  0  0  0  0
  129.9845  153.6252  134.3735 C   0  0  0  0  0  0  0  0  0  0  0  0
  129.5097  154.9190  134.4259 C   0  0  0  0  0  0  0  0  0  0  0  0
  128.2237  154.8271  134.8060 N   0  0  0  0  0  0  0  0  0  0  0  0
  127.8616  153.5579  134.9953 C   0  0  0  0  0  0  0  0  0  0  0  0
  126.6514  153.0156  135.3795 C   0  0  0  0  0  0  0  0  0  0  0  0
  125.5725  153.8388  135.6402 O   0  0  0  0  0  0  0  0  0  0  0  0
  126.5436  151.6657  135.4949 C   0  0  0  0  0  0  0  0  0  0  0  0
  127.6466  150.8515  135.2270 C   0  0  0  0  0  0  0  0  0  0  0  0
  127.7645  149.4432  135.2735 N   0  0  0  0  0  0  0  0  0  0  0  0
  129.1910  149.1684  135.4742 C   0  0  0  0  0  0  0  0  0  0  0  0
  129.8150  150.2745  134.6392 C   0  0  1  0  0  0  0  0  0  0  0  0
  129.7928  149.8084  133.2039 C   0  0  0  0  0  0  0  0  0  0  0  0
  131.3326  148.9962  132.8316 Cl  0  0  0  0  0  0  0  0  0  0  0  0
  128.8566  151.4137  134.8422 C   0  0  0  0  0  0  0  0  0  0  0  0
  128.9714  152.7795  134.7239 C   0  0  0  0  0  0  0  0  0  0  0  0
  126.7482  148.4624  135.1595 C   0  0  0  0  0  0  0  0  0  0  0  0
  125.5671  148.8464  134.9838 O   0  0  0  0  0  0  0  0  0  0  0  0
  127.0251  147.0386  135.2381 C   0  0  0  0  0  0  0  0  0  0  0  0
  127.0508  146.1844  134.1324 C   0  0  0  0  0  0  0  0  0  0  0  0
  127.3494  144.8842  134.5557 C   0  0  0  0  0  0  0  0  0  0  0  0
  127.4983  143.6902  133.9114 C   0  0  0  0  0  0  0  0  0  0  0  0
  127.8062  142.5120  134.5850 C   0  0  0  0  0  0  0  0  0  0  0  0
  127.9155  141.2935  133.8412 N   0  0  0  0  0  0  0  0  0  0  0  0
  128.8774  141.0523  132.8733 C   0  0  0  0  0  0  0  0  0  0  0  0
  129.7891  141.8860  132.5807 O   0  0  0  0  0  0  0  0  0  0  0  0
  128.9448  139.8375  132.1077 N   0  0  0  0  0  0  0  0  0  0  0  0
  130.1469  139.5709  131.3989 C   0  0  0  0  0  0  0  0  0  0  0  0
  130.9817  138.5262  131.7852 C   0  0  0  0  0  0  0  0  0  0  0  0
  132.0825  138.2639  131.0047 C   0  0  0  0  0  0  0  0  0  0  0  0
  132.3628  138.9976  129.8783 C   0  0  0  0  0  0  0  0  0  0  0  0
  133.3336  138.9164  128.9635 N   0  0  0  0  0  0  0  0  0  0  0  0
  133.1759  139.8611  127.9923 C   0  0  0  0  0  0  0  0  0  0  0  0
  132.0609  140.5621  128.3187 C   0  0  0  0  0  0  0  0  0  0  0  0
  131.5366  140.0461  129.4844 C   0  0  0  0  0  0  0  0  0  0  0  0
  130.4369  140.3069  130.2670 C   0  0  0  0  0  0  0  0  0  0  0  0
  134.0831  139.9378  126.8588 C   0  0  0  0  0  0  0  0  0  0  0  0
  135.1789  140.5577  127.0694 O   0  0  0  0  0  0  0  0  0  0  0  0
  133.8680  139.4169  125.6076 N   0  0  0  0  0  0  0  0  0  0  0  0
  132.8959  138.3870  125.1009 C   0  0  0  0  0  0  0  0  0  0  0  0
  134.0955  137.5378  124.4972 C   0  0  1  0  0  0  0  0  0  0  0  0
  133.8304  136.1659  124.4885 C   0  0  0  0  0  0  0  0  0  0  0  0
  132.3182  135.6988  125.2683 Cl  0  0  0  0  0  0  0  0  0  0  0  0
  134.5601  138.5331  123.5823 C   0  0  0  0  0  0  0  0  0  0  0  0
  135.0407  138.6337  122.2874 C   0  0  0  0  0  0  0  0  0  0  0  0
  135.0805  137.7494  121.2441 C   0  0  0  0  0  0  0  0  0  0  0  0
  134.5750  136.3705  121.1620 C   0  0  0  0  0  0  0  0  0  0  0  0
  135.6468  138.4650  120.1674 C   0  0  0  0  0  0  0  0  0  0  0  0
  135.9133  139.6965  120.5722 N   0  0  0  0  0  0  0  0  0  0  0  0
  135.5548  139.8593  121.8829 C   0  0  0  0  0  0  0  0  0  0  0  0
  135.6168  140.9878  122.6730 C   0  0  0  0  0  0  0  0  0  0  0  0
  136.1405  142.1609  122.2054 O   0  0  0  0  0  0  0  0  0  0  0  0
  135.1283  140.8819  123.9516 C   0  0  0  0  0  0  0  0  0  0  0  0
  134.6116  139.7001  124.4005 C   0  0  0  0  0  0  0  0  0  0  0  0
  127.9536  142.6103  135.9374 C   0  0  0  0  0  0  0  0  0  0  0  0
  127.7992  143.8443  136.6010 C   0  0  0  0  0  0  0  0  0  0  0  0
  127.4962  144.9969  135.9287 C   0  0  0  0  0  0  0  0  0  0  0  0
  127.3008  146.2668  136.2944 N   0  0  0  0  0  0  0  0  0  0  0  0
  1  2  1  0
  2  3  2  0
  3  4  1  0
  4  5  1  0
  5  6  2  0
  6  7  1  0
  6  8  1  0
  8  9  2  0
  9 10  1  0
 10 11  1  0
 11 12  1  0
 12 13  1  6
 13 14  1  0
 12 15  1  0
 15 16  2  0
 10 17  1  0
 17 18  2  0
 17 19  1  0
 19 20  2  0
 20 21  1  0
 21 22  2  0
 22 23  1  0
 23 24  1  0
 24 25  1  0
 25 26  2  0
 25 27  1  0
 27 28  1  0
 28 29  2  0
 29 30  1  0
 30 31  2  0
 31 32  1  0
 32 33  1  0
 33 34  2  0
 34 35  1  0
 35 36  2  0
 33 37  1  0
 37 38  2  0
 37 39  1  0
 39 40  1  0
 40 41  1  0
 41 42  1  6
 42 43  1  0
 41 44  1  0
 44 45  2  0
 45 46  1  0
 46 47  1  0
 46 48  2  0
 48 49  1  0
 49 50  1  0
 50 51  2  0
 51 52  1  0
 51 53  1  0
 53 54  2  0
 23 55  2  0
 55 56  1  0
 56 57  2  0
 57 58  1  0
 16  2  1  0
 58 19  1  0
 16  5  1  0
 57 21  1  0
 15  9  1  0
 36 28  1  0
 54 39  1  0
 35 31  1  0
 54 44  1  0
 50 45  1  0
M  END
$$$$
