
     RDKit          3D

 58 67  0  0  0  0  0  0  0  0999 V2000
  191.6702  155.5620  115.8804 C   0  0  0  0  0  0  0  0  0  0  0  0
  190.9179  156.6300  115.1538 C   0  0  0  0  0  0  0  0  0  0  0  0
  190.1548  156.4605  114.0175 C   0  0  0  0  0  0  0  0  0  0  0  0
  189.6713  157.6765  113.7105 N   0  0  0  0  0  0  0  0  0  0  0  0
  190.0825  158.5981  114.5821 C   0  0  0  0  0  0  0  0  0  0  0  0
  189.8257  159.9531  114.6466 C   0  0  0  0  0  0  0  0  0  0  0  0
  189.0247  160.5546  113.6945 O   0  0  0  0  0  0  0  0  0  0  0  0
  190.3723  160.6779  115.6580 C   0  0  0  0  0  0  0  0  0  0  0  0
  191.1793  160.0503  116.6099 C   0  0  0  0  0  0  0  0  0  0  0  0
  191.8388  160.5932  117.7369 N   0  0  0  0  0  0  0  0  0  0  0  0
  192.9525  159.6836  118.0243 C   0  0  0  0  0  0  0  0  0  0  0  0
  192.3200  158.3429  117.6889 C   0  0  1  0  0  0  0  0  0  0  0  0
  191.5013  157.9301  118.8877 C   0  0  0  0  0  0  0  0  0  0  0  0
  190.1753  156.8706  118.3503 Cl  0  0  0  0  0  0  0  0  0  0  0  0
  191.4279  158.6864  116.5297 C   0  0  0  0  0  0  0  0  0  0  0  0
  190.8771  157.9481  115.5079 C   0  0  0  0  0  0  0  0  0  0  0  0
  191.5294  161.7678  118.4667 C   0  0  0  0  0  0  0  0  0  0  0  0
  192.3835  162.2112  119.2712 O   0  0  0  0  0  0  0  0  0  0  0  0
  190.2671  162.4705  118.3160 C   0  0  0  0  0  0  0  0  0  0  0  0
  189.0389  161.9778  118.7649 C   0  0  0  0  0  0  0  0  0  0  0  0
  188.0298  162.9000  118.4651 C   0  0  0  0  0  0  0  0  0  0  0  0
  186.6812  162.9280  118.6735 C   0  0  0  0  0  0  0  0  0  0  0  0
  185.8852  163.9950  118.2677 C   0  0  0  0  0  0  0  0  0  0  0  0
  184.4730  163.9354  118.4953 N   0  0  0  0  0  0  0  0  0  0  0  0
  183.5464  163.5176  117.5535 C   0  0  0  0  0  0  0  0  0  0  0  0
  183.6050  163.8509  116.3297 O   0  0  0  0  0  0  0  0  0  0  0  0
  182.4314  162.6645  117.8620 N   0  0  0  0  0  0  0  0  0  0  0  0
  181.1625  163.0202  117.3311 C   0  0  0  0  0  0  0  0  0  0  0  0
  180.1077  163.3530  118.1762 C   0  0  0  0  0  0  0  0  0  0  0  0
  178.9333  163.7746  117.5991 C   0  0  0  0  0  0  0  0  0  0  0  0
  178.7897  163.8709  116.2369 C   0  0  0  0  0  0  0  0  0  0  0  0
  177.7802  164.2737  115.4594 N   0  0  0  0  0  0  0  0  0  0  0  0
  178.1225  164.2206  114.1401 C   0  0  0  0  0  0  0  0  0  0  0  0
  179.3989  163.7621  114.0949 C   0  0  0  0  0  0  0  0  0  0  0  0
  179.8368  163.5381  115.3825 C   0  0  0  0  0  0  0  0  0  0  0  0
  181.0098  163.1159  115.9619 C   0  0  0  0  0  0  0  0  0  0  0  0
  177.2029  164.6587  113.1028 C   0  0  0  0  0  0  0  0  0  0  0  0
  177.0035  165.9178  113.0373 O   0  0  0  0  0  0  0  0  0  0  0  0
  176.5412  163.8544  112.2093 N   0  0  0  0  0  0  0  0  0  0  0  0
  175.7421  164.1687  110.9743 C   0  0  0  0  0  0  0  0  0  0  0  0
  174.5015  163.3684  111.5619 C   0  0  1  0  0  0  0  0  0  0  0  0
  173.2769  163.8839  111.1289 C   0  0  0  0  0  0  0  0  0  0  0  0
  172.4604  162.9184  109.8984 Cl  0  0  0  0  0  0  0  0  0  0  0  0
  175.1469  162.0954  111.6406 C   0  0  0  0  0  0  0  0  0  0  0  0
  174.8736  160.7578  111.4080 C   0  0  0  0  0  0  0  0  0  0  0  0
  173.8368  160.1206  110.7825 C   0  0  0  0  0  0  0  0  0  0  0  0
  172.6581  160.6848  110.1071 C   0  0  0  0  0  0  0  0  0  0  0  0
  174.1606  158.7474  110.8242 C   0  0  0  0  0  0  0  0  0  0  0  0
  175.3246  158.6064  111.4381 N   0  0  0  0  0  0  0  0  0  0  0  0
  175.8161  159.8247  111.8215 C   0  0  0  0  0  0  0  0  0  0  0  0
  177.0092  160.1308  112.4415 C   0  0  0  0  0  0  0  0  0  0  0  0
  177.8882  159.1558  112.8234 O   0  0  0  0  0  0  0  0  0  0  0  0
  177.2768  161.4598  112.6583 C   0  0  0  0  0  0  0  0  0  0  0  0
  176.3843  162.4185  112.2717 C   0  0  0  0  0  0  0  0  0  0  0  0
  186.5269  165.0240  117.6436 C   0  0  0  0  0  0  0  0  0  0  0  0
  187.9198  164.9932  117.4291 C   0  0  0  0  0  0  0  0  0  0  0  0
  188.6930  163.9387  117.8322 C   0  0  0  0  0  0  0  0  0  0  0  0
  189.9969  163.6567  117.7616 N   0  0  0  0  0  0  0  0  0  0  0  0
  1  2  1  0
  2  3  2  0
  3  4  1  0
  4  5  1  0
  5  6  2  0
  6  7  1  0
  6  8  1  0
  8  9  2  0
  9 10  1  0
 10 11  1  0
 11 12  1  0
 12 13  1  1
 13 14  1  0
 12 15  1  0
 15 16  2  0
 10 17  1  0
 17 18  2  0
 17 19  1  0
 19 20  2  0
 20 21  1  0
 21 22  2  0
 22 23  1  0
 23 24  1  0
 24 25  1  0
 25 26  2  0
 25 27  1  0
 27 28  1  0
 28 29  2  0
 29 30  1  0
 30 31  2  0
 31 32  1  0
 32 33  1  0
 33 34  2  0
 34 35  1  0
 35 36  2  0
 33 37  1  0
 37 38  2  0
 37 39  1  0
 39 40  1  0
 40 41  1  0
 41 42  1  6
 42 43  1  0
 41 44  1  0
 44 45  2  0
 45 46  1  0
 46 47  1  0
 46 48  2  0
 48 49  1  0
 49 50  1  0
 50 51  2  0
 51 52  1  0
 51 53  1  0
 53 54  2  0
 23 55  2  0
 55 56  1  0
 56 57  2  0
 57 58  1  0
 16  2  1  0
 58 19  1  0
 16  5  1  0
 57 21  1  0
 15  9  1  0
 36 28  1  0
 54 39  1  0
 35 31  1  0
 54 44  1  0
 50 45  1  0
M  END
$$$$
