
     RDKit          3D

 58 67  0  0  0  0  0  0  0  0999 V2000
  134.9026  147.7430  126.8617 C   0  0  0  0  0  0  0  0  0  0  0  0
  135.0255  146.8621  125.6603 C   0  0  0  0  0  0  0  0  0  0  0  0
  134.9953  147.2706  124.3433 C   0  0  0  0  0  0  0  0  0  0  0  0
  135.1347  146.1557  123.6058 N   0  0  0  0  0  0  0  0  0  0  0  0
  135.2505  145.0736  124.3763 C   0  0  0  0  0  0  0  0  0  0  0  0
  135.4131  143.7441  124.0413 C   0  0  0  0  0  0  0  0  0  0  0  0
  135.4733  143.3643  122.7141 O   0  0  0  0  0  0  0  0  0  0  0  0
  135.5123  142.8235  125.0362 C   0  0  0  0  0  0  0  0  0  0  0  0
  135.4489  143.2286  126.3716 C   0  0  0  0  0  0  0  0  0  0  0  0
  135.5348  142.4603  127.5555 N   0  0  0  0  0  0  0  0  0  0  0  0
  134.8536  143.2445  128.5907 C   0  0  0  0  0  0  0  0  0  0  0  0
  135.2547  144.6549  128.1905 C   0  0  1  0  0  0  0  0  0  0  0  0
  136.6408  144.8907  128.7387 C   0  0  0  0  0  0  0  0  0  0  0  0
  136.7475  146.5577  129.3545 Cl  0  0  0  0  0  0  0  0  0  0  0  0
  135.2843  144.5701  126.6907 C   0  0  0  0  0  0  0  0  0  0  0  0
  135.1832  145.5061  125.6876 C   0  0  0  0  0  0  0  0  0  0  0  0
  136.1376  141.1928  127.7502 C   0  0  0  0  0  0  0  0  0  0  0  0
  137.2136  140.9474  127.1543 O   0  0  0  0  0  0  0  0  0  0  0  0
  135.5567  140.1760  128.6097 C   0  0  0  0  0  0  0  0  0  0  0  0
  134.4905  139.3529  128.2376 C   0  0  0  0  0  0  0  0  0  0  0  0
  134.1805  138.4873  129.2927 C   0  0  0  0  0  0  0  0  0  0  0  0
  133.2532  137.5008  129.4660 C   0  0  0  0  0  0  0  0  0  0  0  0
  133.1542  136.7685  130.6452 C   0  0  0  0  0  0  0  0  0  0  0  0
  132.1341  135.7705  130.7608 N   0  0  0  0  0  0  0  0  0  0  0  0
  130.7756  136.0267  130.6652 C   0  0  0  0  0  0  0  0  0  0  0  0
  130.0944  135.7694  129.6251 O   0  0  0  0  0  0  0  0  0  0  0  0
  130.0004  136.6031  131.7296 N   0  0  0  0  0  0  0  0  0  0  0  0
  128.6013  136.7421  131.5256 C   0  0  0  0  0  0  0  0  0  0  0  0
  127.9085  137.8200  132.0695 C   0  0  0  0  0  0  0  0  0  0  0  0
  126.5748  137.9454  131.7608 C   0  0  0  0  0  0  0  0  0  0  0  0
  125.9330  137.0471  130.9443 C   0  0  0  0  0  0  0  0  0  0  0  0
  124.6797  136.9755  130.4859 N   0  0  0  0  0  0  0  0  0  0  0  0
  124.5158  135.8985  129.6650 C   0  0  0  0  0  0  0  0  0  0  0  0
  125.7181  135.2716  129.6131 C   0  0  0  0  0  0  0  0  0  0  0  0
  126.6152  135.9643  130.3974 C   0  0  0  0  0  0  0  0  0  0  0  0
  127.9486  135.8405  130.7082 C   0  0  0  0  0  0  0  0  0  0  0  0
  123.2475  135.6390  129.0036 C   0  0  0  0  0  0  0  0  0  0  0  0
  123.2393  135.8095  127.7386 O   0  0  0  0  0  0  0  0  0  0  0  0
  122.0817  135.2392  129.6071 N   0  0  0  0  0  0  0  0  0  0  0  0
  121.7964  134.1902  130.6467 C   0  0  0  0  0  0  0  0  0  0  0  0
  120.7243  133.5167  129.6866 C   0  0  1  0  0  0  0  0  0  0  0  0
  120.6255  132.1361  129.8777 C   0  0  0  0  0  0  0  0  0  0  0  0
  121.4314  131.1588  128.6494 Cl  0  0  0  0  0  0  0  0  0  0  0  0
  119.8449  134.6407  129.6047 C   0  0  0  0  0  0  0  0  0  0  0  0
  118.4886  134.9207  129.5970 C   0  0  0  0  0  0  0  0  0  0  0  0
  117.3854  134.1603  129.8743 C   0  0  0  0  0  0  0  0  0  0  0  0
  117.2968  132.7600  130.3159 C   0  0  0  0  0  0  0  0  0  0  0  0
  116.2846  135.0334  129.7393 C   0  0  0  0  0  0  0  0  0  0  0  0
  116.7348  136.2325  129.4063 N   0  0  0  0  0  0  0  0  0  0  0  0
  118.0996  136.2221  129.3056 C   0  0  0  0  0  0  0  0  0  0  0  0
  118.9642  137.2604  129.0294 C   0  0  0  0  0  0  0  0  0  0  0  0
  118.5064  138.5175  128.7480 O   0  0  0  0  0  0  0  0  0  0  0  0
  120.3072  136.9762  129.0499 C   0  0  0  0  0  0  0  0  0  0  0  0
  120.7441  135.7131  129.3306 C   0  0  0  0  0  0  0  0  0  0  0  0
  134.0402  137.0888  131.6314 C   0  0  0  0  0  0  0  0  0  0  0  0
  134.9971  138.1080  131.4506 C   0  0  0  0  0  0  0  0  0  0  0  0
  135.0856  138.8222  130.2867 C   0  0  0  0  0  0  0  0  0  0  0  0
  135.8741  139.8107  129.8560 N   0  0  0  0  0  0  0  0  0  0  0  0
  1  2  1  0
  2  3  2  0
  3  4  1  0
  4  5  1  0
  5  6  2  0
  6  7  1  0
  6  8  1  0
  8  9  2  0
  9 10  1  0
 10 11  1  0
 11 12  1  0
 12 13  1  1
 13 14  1  0
 12 15  1  0
 15 16  2  0
 10 17  1  0
 17 18  2  0
 17 19  1  0
 19 20  2  0
 20 21  1  0
 21 22  2  0
 22 23  1  0
 23 24  1  0
 24 25  1  0
 25 26  2  0
 25 27  1  0
 27 28  1  0
 28 29  2  0
 29 30  1  0
 30 31  2  0
 31 32  1  0
 32 33  1  0
 33 34  2  0
 34 35  1  0
 35 36  2  0
 33 37  1  0
 37 38  2  0
 37 39  1  0
 39 40  1  0
 40 41  1  0
 41 42  1  1
 42 43  1  0
 41 44  1  0
 44 45  2  0
 45 46  1  0
 46 47  1  0
 46 48  2  0
 48 49  1  0
 49 50  1  0
 50 51  2  0
 51 52  1  0
 51 53  1  0
 53 54  2  0
 23 55  2  0
 55 56  1  0
 56 57  2  0
 57 58  1  0
 16  2  1  0
 58 19  1  0
 16  5  1  0
 57 21  1  0
 15  9  1  0
 36 28  1  0
 54 39  1  0
 35 31  1  0
 54 44  1  0
 50 45  1  0
M  END
$$$$
