
     RDKit          3D

 38 41  0  0  0  0  0  0  0  0999 V2000
  152.4056  166.9171  128.3331 C   0  0  0  0  0  0  0  0  0  0  0  0
  151.3937  166.2602  129.2732 C   0  0  1  0  0  0  0  0  0  0  0  0
  150.8990  164.9845  128.6612 C   0  0  0  0  0  0  0  0  0  0  0  0
  149.4055  165.1016  128.4388 C   0  0  0  0  0  0  0  0  0  0  0  0
  149.2080  166.1436  127.3284 C   0  0  0  0  0  0  0  0  0  0  0  0
  147.7821  166.5457  127.2546 C   0  0  1  0  0  0  0  0  0  0  0  0
  146.8517  165.6433  126.4406 C   0  0  0  0  0  0  0  0  0  0  0  0
  147.2203  166.7795  128.6175 O   0  0  0  0  0  0  0  0  0  0  0  0
  147.3239  167.8003  127.6708 C   0  0  1  0  0  0  0  0  0  0  0  0
  148.2518  168.9276  127.9583 C   0  0  0  0  0  0  0  0  0  0  0  0
  147.8133  169.8288  129.0949 C   0  0  2  0  0  0  0  0  0  0  0  0
  147.7918  169.0783  130.2648 O   0  0  0  0  0  0  0  0  0  0  0  0
  148.0647  169.4297  131.5485 C   0  0  0  0  0  0  0  0  0  0  0  0
  147.1612  169.1435  132.4224 O   0  0  0  0  0  0  0  0  0  0  0  0
  149.2477  170.0933  132.0863 C   0  0  0  0  0  0  0  0  0  0  0  0
  150.4956  169.3154  132.2205 C   0  0  2  0  0  0  0  0  0  0  0  0
  151.0643  169.1705  130.9542 O   0  0  0  0  0  0  0  0  0  0  0  0
  150.4700  168.0335  132.9798 C   0  0  0  0  0  0  0  0  0  0  0  0
  149.4295  168.0210  134.0917 C   0  0  0  0  0  0  0  0  0  0  0  0
  151.8128  167.9701  133.7280 C   0  0  0  0  0  0  0  0  0  0  0  0
  150.2243  166.8234  132.1740 C   0  0  0  0  0  0  0  0  0  0  0  0
  149.0176  166.7499  131.8497 O   0  0  0  0  0  0  0  0  0  0  0  0
  151.1013  165.7774  131.7293 C   0  0  2  0  0  0  0  0  0  0  0  0
  151.9247  165.0527  132.7743 C   0  0  0  0  0  0  0  0  0  0  0  0
  152.5114  165.9800  133.7657 C   0  0  0  0  0  0  0  0  0  0  0  0
  152.6512  167.2851  133.5811 C   0  0  0  0  0  0  0  0  0  0  0  0
  152.0520  166.1182  130.5992 C   0  0  1  0  0  0  0  0  0  0  0  0
  152.9238  165.0060  130.4990 O   0  0  0  0  0  0  0  0  0  0  0  0
  146.4693  170.4614  128.8225 C   0  0  0  0  0  0  0  0  0  0  0  0
  146.4558  171.7286  128.2731 C   0  0  0  0  0  0  0  0  0  0  0  0
  145.2267  172.3024  128.0309 C   0  0  0  0  0  0  0  0  0  0  0  0
  144.0499  171.6039  128.3402 C   0  0  0  0  0  0  0  0  0  0  0  0
  142.3638  171.9082  128.2177 S   0  0  0  0  0  0  0  0  0  0  0  0
  141.7900  170.4337  128.8605 C   0  0  0  0  0  0  0  0  0  0  0  0
  140.3922  169.9200  129.0912 C   0  0  0  0  0  0  0  0  0  0  0  0
  142.9098  169.7910  129.1329 N   0  0  0  0  0  0  0  0  0  0  0  0
  144.0565  170.3489  128.8845 C   0  0  0  0  0  0  0  0  0  0  0  0
  145.3272  169.7970  129.1169 C   0  0  0  0  0  0  0  0  0  0  0  0
  2  1  1  6
  2  3  1  0
  3  4  1  0
  4  5  1  0
  5  6  1  0
  6  7  1  6
  6  8  1  0
  8  9  1  0
  9 10  1  1
 10 11  1  0
 11 12  1  0
 12 13  1  0
 13 14  2  0
 13 15  1  0
 15 16  1  0
 16 17  1  6
 16 18  1  0
 18 19  1  0
 18 20  1  0
 18 21  1  0
 21 22  2  0
 21 23  1  0
 23 24  1  1
 24 25  1  0
 25 26  2  0
 23 27  1  0
 27 28  1  6
 11 29  1  6
 29 30  2  0
 30 31  1  0
 31 32  2  0
 32 33  1  0
 33 34  1  0
 34 35  1  0
 34 36  2  0
 36 37  1  0
 37 38  2  0
 27  2  1  0
 38 29  1  0
  9  6  1  0
 37 32  1  0
M  END
$$$$
