
     RDKit          3D

 38 41  0  0  0  0  0  0  0  0999 V2000
  192.4602  156.9061  125.7691 C   0  0  0  0  0  0  0  0  0  0  0  0
  190.9343  156.8297  125.6988 C   0  0  1  0  0  0  0  0  0  0  0  0
  190.4353  157.7737  124.6469 C   0  0  0  0  0  0  0  0  0  0  0  0
  189.5502  158.8101  125.3071 C   0  0  0  0  0  0  0  0  0  0  0  0
  190.4682  159.6804  126.1774 C   0  0  0  0  0  0  0  0  0  0  0  0
  189.6570  160.5216  127.0911 C   0  0  1  0  0  0  0  0  0  0  0  0
  189.1137  161.8340  126.5211 C   0  0  0  0  0  0  0  0  0  0  0  0
  188.5564  159.7285  127.7137 O   0  0  0  0  0  0  0  0  0  0  0  0
  189.5847  160.2943  128.4697 C   0  0  1  0  0  0  0  0  0  0  0  0
  190.5218  159.3761  129.1718 C   0  0  0  0  0  0  0  0  0  0  0  0
  189.9043  158.6060  130.3216 C   0  0  2  0  0  0  0  0  0  0  0  0
  188.9111  157.7785  129.8105 O   0  0  0  0  0  0  0  0  0  0  0  0
  188.4962  156.5455  130.2022 C   0  0  0  0  0  0  0  0  0  0  0  0
  187.2323  156.4110  130.4174 O   0  0  0  0  0  0  0  0  0  0  0  0
  189.2855  155.3373  130.4175 C   0  0  0  0  0  0  0  0  0  0  0  0
  189.7866  154.6004  129.2401 C   0  0  2  0  0  0  0  0  0  0  0  0
  190.8710  155.3007  128.7092 O   0  0  0  0  0  0  0  0  0  0  0  0
  188.8198  154.1727  128.1901 C   0  0  0  0  0  0  0  0  0  0  0  0
  187.4281  153.8924  128.7410 C   0  0  0  0  0  0  0  0  0  0  0  0
  189.3130  152.7964  127.7109 C   0  0  0  0  0  0  0  0  0  0  0  0
  188.6366  155.1179  127.0733 C   0  0  0  0  0  0  0  0  0  0  0  0
  187.9390  156.0927  127.4336 O   0  0  0  0  0  0  0  0  0  0  0  0
  189.1054  155.0960  125.7165 C   0  0  2  0  0  0  0  0  0  0  0  0
  188.7954  153.8711  124.8806 C   0  0  0  0  0  0  0  0  0  0  0  0
  189.3430  152.6337  125.4775 C   0  0  0  0  0  0  0  0  0  0  0  0
  189.9579  152.5751  126.6502 C   0  0  0  0  0  0  0  0  0  0  0  0
  190.5736  155.4011  125.4967 C   0  0  1  0  0  0  0  0  0  0  0  0
  190.8119  155.1149  124.1299 O   0  0  0  0  0  0  0  0  0  0  0  0
  189.3581  159.5285  131.3852 C   0  0  0  0  0  0  0  0  0  0  0  0
  187.9953  159.7523  131.4027 C   0  0  0  0  0  0  0  0  0  0  0  0
  187.5033  160.5983  132.3726 C   0  0  0  0  0  0  0  0  0  0  0  0
  188.3757  161.1961  133.2946 C   0  0  0  0  0  0  0  0  0  0  0  0
  188.2207  162.2747  134.6223 S   0  0  0  0  0  0  0  0  0  0  0  0
  189.8671  162.3734  135.0656 C   0  0  0  0  0  0  0  0  0  0  0  0
  190.5634  163.1374  136.1622 C   0  0  0  0  0  0  0  0  0  0  0  0
  190.4443  161.5821  134.1815 N   0  0  0  0  0  0  0  0  0  0  0  0
  189.7262  160.9786  133.2825 C   0  0  0  0  0  0  0  0  0  0  0  0
  190.1903  160.1110  132.2800 C   0  0  0  0  0  0  0  0  0  0  0  0
  2  1  1  6
  2  3  1  0
  3  4  1  0
  4  5  1  0
  5  6  1  0
  6  7  1  1
  6  8  1  0
  8  9  1  0
  9 10  1  6
 10 11  1  0
 11 12  1  0
 12 13  1  0
 13 14  2  0
 13 15  1  0
 15 16  1  0
 16 17  1  6
 16 18  1  0
 18 19  1  0
 18 20  1  0
 18 21  1  0
 21 22  2  0
 21 23  1  0
 23 24  1  1
 24 25  1  0
 25 26  2  0
 23 27  1  0
 27 28  1  6
 11 29  1  1
 29 30  2  0
 30 31  1  0
 31 32  2  0
 32 33  1  0
 33 34  1  0
 34 35  1  0
 34 36  2  0
 36 37  1  0
 37 38  2  0
 27  2  1  0
 38 29  1  0
  9  6  1  0
 37 32  1  0
M  END
$$$$
