
     RDKit          3D

 38 41  0  0  0  0  0  0  0  0999 V2000
  157.2870  158.8836  137.3510 C   0  0  0  0  0  0  0  0  0  0  0  0
  158.3938  159.5286  138.1866 C   0  0  1  0  0  0  0  0  0  0  0  0
  158.1488  159.2508  139.6390 C   0  0  0  0  0  0  0  0  0  0  0  0
  157.9458  160.5691  140.3564 C   0  0  0  0  0  0  0  0  0  0  0  0
  156.6087  161.1373  139.8595 C   0  0  0  0  0  0  0  0  0  0  0  0
  156.4731  162.5558  140.2716 C   0  0  1  0  0  0  0  0  0  0  0  0
  155.9483  162.8167  141.6855 C   0  0  0  0  0  0  0  0  0  0  0  0
  157.7436  163.3044  140.0408 O   0  0  0  0  0  0  0  0  0  0  0  0
  156.5615  163.6211  139.3690 C   0  0  1  0  0  0  0  0  0  0  0  0
  156.5196  163.4169  137.8956 C   0  0  0  0  0  0  0  0  0  0  0  0
  157.3947  164.3676  137.1039 C   0  0  2  0  0  0  0  0  0  0  0  0
  158.7197  164.1396  137.4573 O   0  0  0  0  0  0  0  0  0  0  0  0
  159.8596  164.2205  136.7225 C   0  0  0  0  0  0  0  0  0  0  0  0
  160.8029  164.9500  137.2121 O   0  0  0  0  0  0  0  0  0  0  0  0
  160.1727  163.5930  135.4429 C   0  0  0  0  0  0  0  0  0  0  0  0
  160.4693  162.1467  135.4179 C   0  0  2  0  0  0  0  0  0  0  0  0
  159.2687  161.4471  135.5488 O   0  0  0  0  0  0  0  0  0  0  0  0
  161.5362  161.6124  136.3104 C   0  0  0  0  0  0  0  0  0  0  0  0
  162.6420  162.6222  136.5870 C   0  0  0  0  0  0  0  0  0  0  0  0
  162.2370  160.5079  135.5004 C   0  0  0  0  0  0  0  0  0  0  0  0
  161.0801  161.1320  137.6277 C   0  0  0  0  0  0  0  0  0  0  0  0
  160.8203  162.0974  138.3808 O   0  0  0  0  0  0  0  0  0  0  0  0
  160.8982  159.8076  138.1510 C   0  0  2  0  0  0  0  0  0  0  0  0
  162.0720  158.8523  138.0821 C   0  0  0  0  0  0  0  0  0  0  0  0
  162.5731  158.6811  136.7013 C   0  0  0  0  0  0  0  0  0  0  0  0
  163.3633  159.5434  136.0779 C   0  0  0  0  0  0  0  0  0  0  0  0
  159.6920  159.0366  137.6532 C   0  0  1  0  0  0  0  0  0  0  0  0
  159.8599  157.7214  138.1521 O   0  0  0  0  0  0  0  0  0  0  0  0
  157.0052  165.8090  137.3307 C   0  0  0  0  0  0  0  0  0  0  0  0
  157.6825  166.5106  138.3088 C   0  0  0  0  0  0  0  0  0  0  0  0
  157.3197  167.8239  138.5143 C   0  0  0  0  0  0  0  0  0  0  0  0
  156.2981  168.4013  137.7452 C   0  0  0  0  0  0  0  0  0  0  0  0
  155.5393  169.9395  137.6534 S   0  0  0  0  0  0  0  0  0  0  0  0
  154.4283  169.6028  136.4009 C   0  0  0  0  0  0  0  0  0  0  0  0
  153.3852  170.4605  135.7321 C   0  0  0  0  0  0  0  0  0  0  0  0
  154.6941  168.3410  136.1209 N   0  0  0  0  0  0  0  0  0  0  0  0
  155.6235  167.7117  136.7752 C   0  0  0  0  0  0  0  0  0  0  0  0
  156.0208  166.3766  136.5948 C   0  0  0  0  0  0  0  0  0  0  0  0
  2  1  1  6
  2  3  1  0
  3  4  1  0
  4  5  1  0
  5  6  1  0
  6  7  1  1
  6  8  1  0
  8  9  1  0
  9 10  1  6
 10 11  1  0
 11 12  1  0
 12 13  1  0
 13 14  2  0
 13 15  1  0
 15 16  1  0
 16 17  1  1
 16 18  1  0
 18 19  1  0
 18 20  1  0
 18 21  1  0
 21 22  2  0
 21 23  1  0
 23 24  1  6
 24 25  1  0
 25 26  2  0
 23 27  1  0
 27 28  1  1
 11 29  1  1
 29 30  2  0
 30 31  1  0
 31 32  2  0
 32 33  1  0
 33 34  1  0
 34 35  1  0
 34 36  2  0
 36 37  1  0
 37 38  2  0
 27  2  1  0
 38 29  1  0
  9  6  1  0
 37 32  1  0
M  END
$$$$
