
     RDKit          3D

 38 41  0  0  0  0  0  0  0  0999 V2000
  130.7859  139.0773  135.5870 C   0  0  0  0  0  0  0  0  0  0  0  0
  129.4960  139.2752  134.7894 C   0  0  1  0  0  0  0  0  0  0  0  0
  128.9485  137.9394  134.3864 C   0  0  0  0  0  0  0  0  0  0  0  0
  128.9221  137.8633  132.8740 C   0  0  0  0  0  0  0  0  0  0  0  0
  130.3856  137.8162  132.4118 C   0  0  0  0  0  0  0  0  0  0  0  0
  130.4657  138.0468  130.9487 C   0  0  1  0  0  0  0  0  0  0  0  0
  130.2419  136.8319  130.0451 C   0  0  0  0  0  0  0  0  0  0  0  0
  129.5797  139.1745  130.5350 O   0  0  0  0  0  0  0  0  0  0  0  0
  130.9673  139.2283  130.3921 C   0  0  1  0  0  0  0  0  0  0  0  0
  131.7140  140.2303  131.2000 C   0  0  0  0  0  0  0  0  0  0  0  0
  131.4714  141.6706  130.7961 C   0  0  2  0  0  0  0  0  0  0  0  0
  130.1305  141.9659  131.0136 O   0  0  0  0  0  0  0  0  0  0  0  0
  129.5283  143.1218  131.3970 C   0  0  0  0  0  0  0  0  0  0  0  0
  128.5614  143.5355  130.6516 O   0  0  0  0  0  0  0  0  0  0  0  0
  129.8230  143.9729  132.5451 C   0  0  0  0  0  0  0  0  0  0  0  0
  129.4083  143.5186  133.8875 C   0  0  2  0  0  0  0  0  0  0  0  0
  130.2901  142.5222  134.3088 O   0  0  0  0  0  0  0  0  0  0  0  0
  127.9834  143.1477  134.1166 C   0  0  0  0  0  0  0  0  0  0  0  0
  127.0167  143.9230  133.2315 C   0  0  0  0  0  0  0  0  0  0  0  0
  127.6542  143.6330  135.5390 C   0  0  0  0  0  0  0  0  0  0  0  0
  127.6604  141.7217  133.9265 C   0  0  0  0  0  0  0  0  0  0  0  0
  127.6228  141.4391  132.7077 O   0  0  0  0  0  0  0  0  0  0  0  0
  127.3973  140.6683  134.8658 C   0  0  2  0  0  0  0  0  0  0  0  0
  126.3101  140.8946  135.8963 C   0  0  0  0  0  0  0  0  0  0  0  0
  126.6151  142.0327  136.7901 C   0  0  0  0  0  0  0  0  0  0  0  0
  127.8107  142.2827  137.3048 C   0  0  0  0  0  0  0  0  0  0  0  0
  128.5891  140.1123  135.6192 C   0  0  1  0  0  0  0  0  0  0  0  0
  128.0390  139.2555  136.6042 O   0  0  0  0  0  0  0  0  0  0  0  0
  131.8646  141.9243  129.3603 C   0  0  0  0  0  0  0  0  0  0  0  0
  131.1240  142.8449  128.6450 C   0  0  0  0  0  0  0  0  0  0  0  0
  131.4847  143.0689  127.3341 C   0  0  0  0  0  0  0  0  0  0  0  0
  132.5669  142.3746  126.7726 C   0  0  0  0  0  0  0  0  0  0  0  0
  133.3466  142.3300  125.2428 S   0  0  0  0  0  0  0  0  0  0  0  0
  134.5438  141.1655  125.5995 C   0  0  0  0  0  0  0  0  0  0  0  0
  135.6426  140.5705  124.7570 C   0  0  0  0  0  0  0  0  0  0  0  0
  134.2862  140.8743  126.8604 N   0  0  0  0  0  0  0  0  0  0  0  0
  133.3042  141.4616  127.4757 C   0  0  0  0  0  0  0  0  0  0  0  0
  132.9069  141.2602  128.8079 C   0  0  0  0  0  0  0  0  0  0  0  0
  2  1  1  1
  2  3  1  0
  3  4  1  0
  4  5  1  0
  5  6  1  0
  6  7  1  6
  6  8  1  0
  8  9  1  0
  9 10  1  1
 10 11  1  0
 11 12  1  0
 12 13  1  0
 13 14  2  0
 13 15  1  0
 15 16  1  0
 16 17  1  6
 16 18  1  0
 18 19  1  0
 18 20  1  0
 18 21  1  0
 21 22  2  0
 21 23  1  0
 23 24  1  1
 24 25  1  0
 25 26  2  0
 23 27  1  0
 27 28  1  1
 11 29  1  6
 29 30  2  0
 30 31  1  0
 31 32  2  0
 32 33  1  0
 33 34  1  0
 34 35  1  0
 34 36  2  0
 36 37  1  0
 37 38  2  0
 27  2  1  0
 38 29  1  0
  9  6  1  0
 37 32  1  0
M  END
$$$$
