
     RDKit          3D

 38 41  0  0  0  0  0  0  0  0999 V2000
  133.3453  138.0363  131.0034 C   0  0  0  0  0  0  0  0  0  0  0  0
  132.5968  138.2053  132.3264 C   0  0  1  0  0  0  0  0  0  0  0  0
  132.8058  136.9889  133.1770 C   0  0  0  0  0  0  0  0  0  0  0  0
  131.4623  136.3358  133.4262 C   0  0  0  0  0  0  0  0  0  0  0  0
  130.9945  135.7672  132.0789 C   0  0  0  0  0  0  0  0  0  0  0  0
  129.5644  135.3810  132.1576 C   0  0  1  0  0  0  0  0  0  0  0  0
  129.2534  133.9999  132.7391 C   0  0  0  0  0  0  0  0  0  0  0  0
  128.7634  136.4316  132.8522 O   0  0  0  0  0  0  0  0  0  0  0  0
  128.5480  136.0956  131.5145 C   0  0  1  0  0  0  0  0  0  0  0  0
  128.8358  137.1263  130.4806 C   0  0  0  0  0  0  0  0  0  0  0  0
  127.8856  138.3067  130.4877 C   0  0  2  0  0  0  0  0  0  0  0  0
  128.0229  138.9714  131.7009 O   0  0  0  0  0  0  0  0  0  0  0  0
  127.9226  140.2919  132.0046 C   0  0  0  0  0  0  0  0  0  0  0  0
  127.1178  140.5967  132.9644 O   0  0  0  0  0  0  0  0  0  0  0  0
  128.6029  141.4283  131.3923 C   0  0  0  0  0  0  0  0  0  0  0  0
  130.0305  141.6474  131.6991 C   0  0  2  0  0  0  0  0  0  0  0  0
  130.7845  140.7175  130.9816 O   0  0  0  0  0  0  0  0  0  0  0  0
  130.4568  141.7439  133.1237 C   0  0  0  0  0  0  0  0  0  0  0  0
  129.3759  142.3157  134.0311 C   0  0  0  0  0  0  0  0  0  0  0  0
  131.5660  142.8098  133.1512 C   0  0  0  0  0  0  0  0  0  0  0  0
  130.8866  140.4775  133.7446 C   0  0  0  0  0  0  0  0  0  0  0  0
  129.8959  139.7583  134.0050 O   0  0  0  0  0  0  0  0  0  0  0  0
  132.1876  139.9703  134.0781 C   0  0  2  0  0  0  0  0  0  0  0  0
  133.0815  140.8316  134.9465 C   0  0  0  0  0  0  0  0  0  0  0  0
  132.7269  140.7385  136.3792 C   0  0  0  0  0  0  0  0  0  0  0  0
  132.1113  141.6924  137.0631 C   0  0  0  0  0  0  0  0  0  0  0  0
  133.0481  139.4888  132.9271 C   0  0  1  0  0  0  0  0  0  0  0  0
  134.3227  139.2420  133.4940 O   0  0  0  0  0  0  0  0  0  0  0  0
  126.4566  137.8777  130.2542 C   0  0  0  0  0  0  0  0  0  0  0  0
  125.4580  138.7877  130.5415 C   0  0  0  0  0  0  0  0  0  0  0  0
  124.1560  138.3891  130.3307 C   0  0  0  0  0  0  0  0  0  0  0  0
  123.8835  137.1024  129.8422 C   0  0  0  0  0  0  0  0  0  0  0  0
  122.4744  136.2052  129.4423 S   0  0  0  0  0  0  0  0  0  0  0  0
  123.2268  134.7553  128.9439 C   0  0  0  0  0  0  0  0  0  0  0  0
  122.6566  133.4559  128.4365 C   0  0  0  0  0  0  0  0  0  0  0  0
  124.5065  135.0316  129.1082 N   0  0  0  0  0  0  0  0  0  0  0  0
  124.8679  136.1965  129.5558 C   0  0  0  0  0  0  0  0  0  0  0  0
  126.1816  136.6387  129.7833 C   0  0  0  0  0  0  0  0  0  0  0  0
  2  1  1  6
  2  3  1  0
  3  4  1  0
  4  5  1  0
  5  6  1  0
  6  7  1  1
  6  8  1  0
  8  9  1  0
  9 10  1  6
 10 11  1  0
 11 12  1  0
 12 13  1  0
 13 14  2  0
 13 15  1  0
 15 16  1  0
 16 17  1  1
 16 18  1  0
 18 19  1  0
 18 20  1  0
 18 21  1  0
 21 22  2  0
 21 23  1  0
 23 24  1  6
 24 25  1  0
 25 26  2  0
 23 27  1  0
 27 28  1  1
 11 29  1  1
 29 30  2  0
 30 31  1  0
 31 32  2  0
 32 33  1  0
 33 34  1  0
 34 35  1  0
 34 36  2  0
 36 37  1  0
 37 38  2  0
 27  2  1  0
 38 29  1  0
  9  6  1  0
 37 32  1  0
M  END
$$$$
