
     RDKit          3D

 38 41  0  0  0  0  0  0  0  0999 V2000
  192.4108  158.1597  122.4999 C   0  0  0  0  0  0  0  0  0  0  0  0
  191.1539  157.9078  123.3341 C   0  0  1  0  0  0  0  0  0  0  0  0
  190.3415  156.8211  122.6971 C   0  0  0  0  0  0  0  0  0  0  0  0
  188.9935  157.3902  122.3065 C   0  0  0  0  0  0  0  0  0  0  0  0
  189.2503  158.3784  121.1597 C   0  0  0  0  0  0  0  0  0  0  0  0
  188.0421  159.2044  120.9184 C   0  0  1  0  0  0  0  0  0  0  0  0
  186.9584  158.5975  120.0241 C   0  0  0  0  0  0  0  0  0  0  0  0
  187.4515  159.6781  122.2047 O   0  0  0  0  0  0  0  0  0  0  0  0
  187.9691  160.5605  121.2547 C   0  0  1  0  0  0  0  0  0  0  0  0
  189.1747  161.3522  121.6209 C   0  0  0  0  0  0  0  0  0  0  0  0
  188.9358  162.4069  122.6824 C   0  0  2  0  0  0  0  0  0  0  0  0
  188.5596  161.7672  123.8578 O   0  0  0  0  0  0  0  0  0  0  0  0
  188.8011  162.0850  125.1565 C   0  0  0  0  0  0  0  0  0  0  0  0
  187.7712  162.1466  125.9294 O   0  0  0  0  0  0  0  0  0  0  0  0
  190.0742  162.3708  125.8096 C   0  0  0  0  0  0  0  0  0  0  0  0
  190.9888  161.2482  126.0987 C   0  0  2  0  0  0  0  0  0  0  0  0
  191.6047  160.8619  124.9072 O   0  0  0  0  0  0  0  0  0  0  0  0
  190.4800  160.0836  126.8766 C   0  0  0  0  0  0  0  0  0  0  0  0
  189.3847  160.4607  127.8650 C   0  0  0  0  0  0  0  0  0  0  0  0
  191.6509  159.6418  127.7715 C   0  0  0  0  0  0  0  0  0  0  0  0
  189.9426  158.9699  126.0735 C   0  0  0  0  0  0  0  0  0  0  0  0
  188.8141  159.2623  125.6178 O   0  0  0  0  0  0  0  0  0  0  0  0
  190.4797  157.6780  125.7515 C   0  0  2  0  0  0  0  0  0  0  0  0
  190.9204  156.7897  126.8968 C   0  0  0  0  0  0  0  0  0  0  0  0
  191.7508  157.5170  127.8810 C   0  0  0  0  0  0  0  0  0  0  0  0
  193.0614  157.6853  127.7779 C   0  0  0  0  0  0  0  0  0  0  0  0
  191.5970  157.6391  124.7281 C   0  0  1  0  0  0  0  0  0  0  0  0
  192.0737  156.3053  124.7492 O   0  0  0  0  0  0  0  0  0  0  0  0
  187.8982  163.4146  122.2483 C   0  0  0  0  0  0  0  0  0  0  0  0
  186.6383  163.3197  122.8063 C   0  0  0  0  0  0  0  0  0  0  0  0
  185.6945  164.2391  122.4030 C   0  0  0  0  0  0  0  0  0  0  0  0
  186.0275  165.2232  121.4602 C   0  0  0  0  0  0  0  0  0  0  0  0
  185.2113  166.5245  120.6913 S   0  0  0  0  0  0  0  0  0  0  0  0
  186.4975  167.0986  119.7255 C   0  0  0  0  0  0  0  0  0  0  0  0
  186.5800  168.2411  118.7463 C   0  0  0  0  0  0  0  0  0  0  0  0
  187.4762  166.2711  120.0396 N   0  0  0  0  0  0  0  0  0  0  0  0
  187.2733  165.3225  120.9038 C   0  0  0  0  0  0  0  0  0  0  0  0
  188.2080  164.3686  121.3391 C   0  0  0  0  0  0  0  0  0  0  0  0
  2  1  1  6
  2  3  1  0
  3  4  1  0
  4  5  1  0
  5  6  1  0
  6  7  1  6
  6  8  1  0
  8  9  1  0
  9 10  1  1
 10 11  1  0
 11 12  1  0
 12 13  1  0
 13 14  2  0
 13 15  1  0
 15 16  1  0
 16 17  1  6
 16 18  1  0
 18 19  1  0
 18 20  1  0
 18 21  1  0
 21 22  2  0
 21 23  1  0
 23 24  1  1
 24 25  1  0
 25 26  2  0
 23 27  1  0
 27 28  1  6
 11 29  1  6
 29 30  2  0
 30 31  1  0
 31 32  2  0
 32 33  1  0
 33 34  1  0
 34 35  1  0
 34 36  2  0
 36 37  1  0
 37 38  2  0
 27  2  1  0
 38 29  1  0
  9  6  1  0
 37 32  1  0
M  END
$$$$
