
     RDKit          3D

 38 41  0  0  0  0  0  0  0  0999 V2000
  187.0151  163.4411  135.4239 C   0  0  0  0  0  0  0  0  0  0  0  0
  186.6574  162.3260  134.4401 C   0  0  1  0  0  0  0  0  0  0  0  0
  186.2546  162.9284  133.1280 C   0  0  0  0  0  0  0  0  0  0  0  0
  184.8181  162.5447  132.8399 C   0  0  0  0  0  0  0  0  0  0  0  0
  183.9516  163.2870  133.8673 C   0  0  0  0  0  0  0  0  0  0  0  0
  182.5720  162.7418  133.8593 C   0  0  1  0  0  0  0  0  0  0  0  0
  181.6175  163.2946  132.7983 C   0  0  0  0  0  0  0  0  0  0  0  0
  182.5860  161.2498  133.8214 O   0  0  0  0  0  0  0  0  0  0  0  0
  182.0576  161.9611  134.9001 C   0  0  1  0  0  0  0  0  0  0  0  0
  182.7421  161.8442  136.2161 C   0  0  0  0  0  0  0  0  0  0  0  0
  182.6217  160.4818  136.8688 C   0  0  2  0  0  0  0  0  0  0  0  0
  183.2540  159.5493  136.0545 O   0  0  0  0  0  0  0  0  0  0  0  0
  183.9457  158.4229  136.3683 C   0  0  0  0  0  0  0  0  0  0  0  0
  183.5731  157.3410  135.7747 O   0  0  0  0  0  0  0  0  0  0  0  0
  185.0630  158.2600  137.2926 C   0  0  0  0  0  0  0  0  0  0  0  0
  186.3947  158.7520  136.8866 C   0  0  2  0  0  0  0  0  0  0  0  0
  186.4067  160.1427  137.0042 O   0  0  0  0  0  0  0  0  0  0  0  0
  186.9732  158.2880  135.5941 C   0  0  0  0  0  0  0  0  0  0  0  0
  186.5164  156.8882  135.2059 C   0  0  0  0  0  0  0  0  0  0  0  0
  188.4817  158.1277  135.8511 C   0  0  0  0  0  0  0  0  0  0  0  0
  186.6956  159.1484  134.4293 C   0  0  0  0  0  0  0  0  0  0  0  0
  185.5131  159.0003  134.0466 O   0  0  0  0  0  0  0  0  0  0  0  0
  187.5212  160.0748  133.7075 C   0  0  2  0  0  0  0  0  0  0  0  0
  188.8421  159.5701  133.1636 C   0  0  0  0  0  0  0  0  0  0  0  0
  189.7874  159.2051  134.2407 C   0  0  0  0  0  0  0  0  0  0  0  0
  190.3810  160.0758  135.0446 C   0  0  0  0  0  0  0  0  0  0  0  0
  187.8176  161.3972  134.3862 C   0  0  1  0  0  0  0  0  0  0  0  0
  188.7956  162.0211  133.5731 O   0  0  0  0  0  0  0  0  0  0  0  0
  181.1808  160.1056  137.1196 C   0  0  0  0  0  0  0  0  0  0  0  0
  180.9323  158.9056  137.7568 C   0  0  0  0  0  0  0  0  0  0  0  0
  179.6156  158.5656  137.9790 C   0  0  0  0  0  0  0  0  0  0  0  0
  178.5865  159.4240  137.5635 C   0  0  0  0  0  0  0  0  0  0  0  0
  176.8700  159.4157  137.6249 S   0  0  0  0  0  0  0  0  0  0  0  0
  176.5788  160.9101  136.8512 C   0  0  0  0  0  0  0  0  0  0  0  0
  175.2979  161.6300  136.5164 C   0  0  0  0  0  0  0  0  0  0  0  0
  177.8006  161.3337  136.5887 N   0  0  0  0  0  0  0  0  0  0  0  0
  178.8261  160.6137  136.9320 C   0  0  0  0  0  0  0  0  0  0  0  0
  180.1796  160.9259  136.7231 C   0  0  0  0  0  0  0  0  0  0  0  0
  2  1  1  1
  2  3  1  0
  3  4  1  0
  4  5  1  0
  5  6  1  0
  6  7  1  6
  6  8  1  0
  8  9  1  0
  9 10  1  1
 10 11  1  0
 11 12  1  0
 12 13  1  0
 13 14  2  0
 13 15  1  0
 15 16  1  0
 16 17  1  6
 16 18  1  0
 18 19  1  0
 18 20  1  0
 18 21  1  0
 21 22  2  0
 21 23  1  0
 23 24  1  1
 24 25  1  0
 25 26  2  0
 23 27  1  0
 27 28  1  6
 11 29  1  6
 29 30  2  0
 30 31  1  0
 31 32  2  0
 32 33  1  0
 33 34  1  0
 34 35  1  0
 34 36  2  0
 36 37  1  0
 37 38  2  0
 27  2  1  0
 38 29  1  0
  9  6  1  0
 37 32  1  0
M  END
$$$$
