
     RDKit          3D

 38 41  0  0  0  0  0  0  0  0999 V2000
  114.4538  163.3714  143.4642 C   0  0  0  0  0  0  0  0  0  0  0  0
  114.9116  164.5965  142.6713 C   0  0  1  0  0  0  0  0  0  0  0  0
  115.4372  164.1597  141.3373 C   0  0  0  0  0  0  0  0  0  0  0  0
  116.8969  164.5515  141.2403 C   0  0  0  0  0  0  0  0  0  0  0  0
  117.6553  163.6687  142.2420 C   0  0  0  0  0  0  0  0  0  0  0  0
  119.0319  164.1859  142.4368 C   0  0  1  0  0  0  0  0  0  0  0  0
  120.0824  163.7564  141.4101 C   0  0  0  0  0  0  0  0  0  0  0  0
  119.0294  165.6706  142.5903 O   0  0  0  0  0  0  0  0  0  0  0  0
  119.4465  164.8180  143.6141 C   0  0  1  0  0  0  0  0  0  0  0  0
  118.6374  164.7780  144.8624 C   0  0  0  0  0  0  0  0  0  0  0  0
  118.7008  166.0434  145.6937 C   0  0  2  0  0  0  0  0  0  0  0  0
  118.1557  167.0834  144.9494 O   0  0  0  0  0  0  0  0  0  0  0  0
  117.4426  168.1726  145.3380 C   0  0  0  0  0  0  0  0  0  0  0  0
  117.8770  169.3147  144.9273 O   0  0  0  0  0  0  0  0  0  0  0  0
  116.2414  168.2359  146.1639 C   0  0  0  0  0  0  0  0  0  0  0  0
  114.9531  167.8234  145.5718 C   0  0  2  0  0  0  0  0  0  0  0  0
  114.9224  166.4295  145.5075 O   0  0  0  0  0  0  0  0  0  0  0  0
  114.5058  168.4589  144.3004 C   0  0  0  0  0  0  0  0  0  0  0  0
  115.0056  169.8885  144.1415 C   0  0  0  0  0  0  0  0  0  0  0  0
  112.9803  168.6117  144.4299 C   0  0  0  0  0  0  0  0  0  0  0  0
  114.8912  167.7496  143.0665 C   0  0  0  0  0  0  0  0  0  0  0  0
  116.1061  167.9244  142.8215 O   0  0  0  0  0  0  0  0  0  0  0  0
  114.1350  166.9378  142.1554 C   0  0  2  0  0  0  0  0  0  0  0  0
  112.8762  167.5312  141.5567 C   0  0  0  0  0  0  0  0  0  0  0  0
  111.7897  167.6578  142.5521 C   0  0  0  0  0  0  0  0  0  0  0  0
  110.9013  168.6411  142.5716 C   0  0  0  0  0  0  0  0  0  0  0  0
  113.7670  165.5450  142.6264 C   0  0  1  0  0  0  0  0  0  0  0  0
  112.8697  165.0476  141.6495 O   0  0  0  0  0  0  0  0  0  0  0  0
  120.1123  166.3589  146.1281 C   0  0  0  0  0  0  0  0  0  0  0  0
  120.4295  167.6816  146.3685 C   0  0  0  0  0  0  0  0  0  0  0  0
  121.7200  167.9638  146.7603 C   0  0  0  0  0  0  0  0  0  0  0  0
  122.6557  166.9281  146.9019 C   0  0  0  0  0  0  0  0  0  0  0  0
  124.3100  166.8098  147.3488 S   0  0  0  0  0  0  0  0  0  0  0  0
  124.4938  165.1180  147.2053 C   0  0  0  0  0  0  0  0  0  0  0  0
  125.6812  164.2182  147.4323 C   0  0  0  0  0  0  0  0  0  0  0  0
  123.2893  164.7354  146.8261 N   0  0  0  0  0  0  0  0  0  0  0  0
  122.3479  165.6163  146.6654 C   0  0  0  0  0  0  0  0  0  0  0  0
  121.0237  165.3678  146.2680 C   0  0  0  0  0  0  0  0  0  0  0  0
  2  1  1  1
  2  3  1  0
  3  4  1  0
  4  5  1  0
  5  6  1  0
  6  7  1  6
  6  8  1  0
  8  9  1  0
  9 10  1  1
 10 11  1  0
 11 12  1  0
 12 13  1  0
 13 14  2  0
 13 15  1  0
 15 16  1  0
 16 17  1  6
 16 18  1  0
 18 19  1  0
 18 20  1  0
 18 21  1  0
 21 22  2  0
 21 23  1  0
 23 24  1  1
 24 25  1  0
 25 26  2  0
 23 27  1  0
 27 28  1  6
 11 29  1  6
 29 30  2  0
 30 31  1  0
 31 32  2  0
 32 33  1  0
 33 34  1  0
 34 35  1  0
 34 36  2  0
 36 37  1  0
 37 38  2  0
 27  2  1  0
 38 29  1  0
  9  6  1  0
 37 32  1  0
M  END
$$$$
