
     RDKit          3D

 38 41  0  0  0  0  0  0  0  0999 V2000
  187.3713  161.0093  126.5397 C   0  0  0  0  0  0  0  0  0  0  0  0
  188.8669  160.9600  126.8560 C   0  0  1  0  0  0  0  0  0  0  0  0
  189.4192  162.3533  126.8751 C   0  0  0  0  0  0  0  0  0  0  0  0
  190.4713  162.4718  125.7922 C   0  0  0  0  0  0  0  0  0  0  0  0
  189.7303  162.3877  124.4499 C   0  0  0  0  0  0  0  0  0  0  0  0
  190.6993  162.1893  123.3444 C   0  0  1  0  0  0  0  0  0  0  0  0
  191.3733  163.4439  122.7839 C   0  0  0  0  0  0  0  0  0  0  0  0
  191.7230  161.1653  123.7068 O   0  0  0  0  0  0  0  0  0  0  0  0
  190.8262  160.9796  122.6531 C   0  0  1  0  0  0  0  0  0  0  0  0
  189.8222  159.8881  122.7750 C   0  0  0  0  0  0  0  0  0  0  0  0
  190.4034  158.4898  122.7179 C   0  0  2  0  0  0  0  0  0  0  0  0
  191.2464  158.3216  123.8104 O   0  0  0  0  0  0  0  0  0  0  0  0
  191.5200  157.2204  124.5576 C   0  0  0  0  0  0  0  0  0  0  0  0
  192.7663  156.9235  124.7004 O   0  0  0  0  0  0  0  0  0  0  0  0
  190.5943  156.3143  125.2293 C   0  0  0  0  0  0  0  0  0  0  0  0
  189.9295  156.7711  126.4662 C   0  0  2  0  0  0  0  0  0  0  0  0
  188.9154  157.6648  126.1186 O   0  0  0  0  0  0  0  0  0  0  0  0
  190.7656  157.2736  127.5927 C   0  0  0  0  0  0  0  0  0  0  0  0
  192.1400  156.6205  127.6513 C   0  0  0  0  0  0  0  0  0  0  0  0
  190.0681  156.7852  128.8741 C   0  0  0  0  0  0  0  0  0  0  0  0
  191.0015  158.7290  127.6078 C   0  0  0  0  0  0  0  0  0  0  0  0
  191.8414  159.0462  126.7356 O   0  0  0  0  0  0  0  0  0  0  0  0
  190.4511  159.7776  128.4192 C   0  0  2  0  0  0  0  0  0  0  0  0
  190.5461  159.6316  129.9241 C   0  0  0  0  0  0  0  0  0  0  0  0
  191.5576  158.6303  130.3258 C   0  0  0  0  0  0  0  0  0  0  0  0
  192.8651  158.8474  130.3360 C   0  0  0  0  0  0  0  0  0  0  0  0
  189.0246  160.1940  128.1210 C   0  0  1  0  0  0  0  0  0  0  0  0
  188.6671  161.0740  129.1720 O   0  0  0  0  0  0  0  0  0  0  0  0
  191.1301  158.2371  121.4184 C   0  0  0  0  0  0  0  0  0  0  0  0
  192.4305  157.7771  121.4890 C   0  0  0  0  0  0  0  0  0  0  0  0
  193.0899  157.5526  120.3001 C   0  0  0  0  0  0  0  0  0  0  0  0
  192.4414  157.7906  119.0789 C   0  0  0  0  0  0  0  0  0  0  0  0
  192.8506  157.6582  117.4160 S   0  0  0  0  0  0  0  0  0  0  0  0
  191.3714  158.1860  116.7454 C   0  0  0  0  0  0  0  0  0  0  0  0
  190.9250  158.3544  115.3158 C   0  0  0  0  0  0  0  0  0  0  0  0
  190.6477  158.4338  117.8205 N   0  0  0  0  0  0  0  0  0  0  0  0
  191.1537  158.2462  119.0023 C   0  0  0  0  0  0  0  0  0  0  0  0
  190.5145  158.4633  120.2341 C   0  0  0  0  0  0  0  0  0  0  0  0
  2  1  1  1
  2  3  1  0
  3  4  1  0
  4  5  1  0
  5  6  1  0
  6  7  1  6
  6  8  1  0
  8  9  1  0
  9 10  1  1
 10 11  1  0
 11 12  1  0
 12 13  1  0
 13 14  2  0
 13 15  1  0
 15 16  1  0
 16 17  1  6
 16 18  1  0
 18 19  1  0
 18 20  1  0
 18 21  1  0
 21 22  2  0
 21 23  1  0
 23 24  1  1
 24 25  1  0
 25 26  2  0
 23 27  1  0
 27 28  1  1
 11 29  1  6
 29 30  2  0
 30 31  1  0
 31 32  2  0
 32 33  1  0
 33 34  1  0
 34 35  1  0
 34 36  2  0
 36 37  1  0
 37 38  2  0
 27  2  1  0
 38 29  1  0
  9  6  1  0
 37 32  1  0
M  END
$$$$
