
     RDKit          3D

 38 41  0  0  0  0  0  0  0  0999 V2000
  129.3424  142.8784  131.6813 C   0  0  0  0  0  0  0  0  0  0  0  0
  130.1032  141.8357  132.5018 C   0  0  1  0  0  0  0  0  0  0  0  0
  131.5770  142.0751  132.3698 C   0  0  0  0  0  0  0  0  0  0  0  0
  132.2096  140.8574  131.7290 C   0  0  0  0  0  0  0  0  0  0  0  0
  131.7115  140.8174  130.2771 C   0  0  0  0  0  0  0  0  0  0  0  0
  132.0311  139.5047  129.6647 C   0  0  1  0  0  0  0  0  0  0  0  0
  133.4377  139.3376  129.0851 C   0  0  0  0  0  0  0  0  0  0  0  0
  131.7170  138.3859  130.6014 O   0  0  0  0  0  0  0  0  0  0  0  0
  131.0571  138.5412  129.3810 C   0  0  1  0  0  0  0  0  0  0  0  0
  129.6023  138.8530  129.4086 C   0  0  0  0  0  0  0  0  0  0  0  0
  128.7258  137.7202  129.9035 C   0  0  2  0  0  0  0  0  0  0  0  0
  129.0583  137.4560  131.2271 O   0  0  0  0  0  0  0  0  0  0  0  0
  128.2898  137.0438  132.2689 C   0  0  0  0  0  0  0  0  0  0  0  0
  128.7042  136.0027  132.9063 O   0  0  0  0  0  0  0  0  0  0  0  0
  127.0473  137.6170  132.7755 C   0  0  0  0  0  0  0  0  0  0  0  0
  127.1113  138.8729  133.5495 C   0  0  2  0  0  0  0  0  0  0  0  0
  127.3205  139.9291  132.6614 O   0  0  0  0  0  0  0  0  0  0  0  0
  128.0089  138.9450  134.7367 C   0  0  0  0  0  0  0  0  0  0  0  0
  128.1878  137.6011  135.4302 C   0  0  0  0  0  0  0  0  0  0  0  0
  127.2564  139.7991  135.7717 C   0  0  0  0  0  0  0  0  0  0  0  0
  129.3671  139.4561  134.4753 C   0  0  0  0  0  0  0  0  0  0  0  0
  130.0604  138.5858  133.9021 O   0  0  0  0  0  0  0  0  0  0  0  0
  129.9826  140.7216  134.7591 C   0  0  2  0  0  0  0  0  0  0  0  0
  129.9467  141.2209  136.1890 C   0  0  0  0  0  0  0  0  0  0  0  0
  130.5141  140.2392  137.1384 C   0  0  0  0  0  0  0  0  0  0  0  0
  130.0826  140.0593  138.3786 C   0  0  0  0  0  0  0  0  0  0  0  0
  129.5697  141.8919  133.8890 C   0  0  1  0  0  0  0  0  0  0  0  0
  130.1509  143.0311  134.4983 O   0  0  0  0  0  0  0  0  0  0  0  0
  128.8658  136.4862  129.0443 C   0  0  0  0  0  0  0  0  0  0  0  0
  127.7451  135.6995  128.8632 C   0  0  0  0  0  0  0  0  0  0  0  0
  127.8802  134.5725  128.0820 C   0  0  0  0  0  0  0  0  0  0  0  0
  129.1201  134.2599  127.5047 C   0  0  0  0  0  0  0  0  0  0  0  0
  129.7352  133.0104  126.4993 S   0  0  0  0  0  0  0  0  0  0  0  0
  131.3492  133.5544  126.3731 C   0  0  0  0  0  0  0  0  0  0  0  0
  132.5410  132.9889  125.6445 C   0  0  0  0  0  0  0  0  0  0  0  0
  131.3328  134.6548  127.1011 N   0  0  0  0  0  0  0  0  0  0  0  0
  130.2337  135.0349  127.6802 C   0  0  0  0  0  0  0  0  0  0  0  0
  130.0573  136.1745  128.4823 C   0  0  0  0  0  0  0  0  0  0  0  0
  2  1  1  6
  2  3  1  0
  3  4  1  0
  4  5  1  0
  5  6  1  0
  6  7  1  6
  6  8  1  0
  8  9  1  0
  9 10  1  1
 10 11  1  0
 11 12  1  0
 12 13  1  0
 13 14  2  0
 13 15  1  0
 15 16  1  0
 16 17  1  6
 16 18  1  0
 18 19  1  0
 18 20  1  0
 18 21  1  0
 21 22  2  0
 21 23  1  0
 23 24  1  1
 24 25  1  0
 25 26  2  0
 23 27  1  0
 27 28  1  1
 11 29  1  6
 29 30  2  0
 30 31  1  0
 31 32  2  0
 32 33  1  0
 33 34  1  0
 34 35  1  0
 34 36  2  0
 36 37  1  0
 37 38  2  0
 27  2  1  0
 38 29  1  0
  9  6  1  0
 37 32  1  0
M  END
$$$$
