
     RDKit          3D

 38 41  0  0  0  0  0  0  0  0999 V2000
  150.2097  169.1954  127.7800 C   0  0  0  0  0  0  0  0  0  0  0  0
  150.1765  168.4083  129.0909 C   0  0  1  0  0  0  0  0  0  0  0  0
  149.9091  166.9627  128.7984 C   0  0  0  0  0  0  0  0  0  0  0  0
  148.6067  166.5673  129.4626 C   0  0  0  0  0  0  0  0  0  0  0  0
  147.4897  167.3076  128.7128 C   0  0  0  0  0  0  0  0  0  0  0  0
  146.2207  167.2233  129.4764 C   0  0  1  0  0  0  0  0  0  0  0  0
  145.3810  165.9586  129.2822 C   0  0  0  0  0  0  0  0  0  0  0  0
  146.4518  167.4778  130.9289 O   0  0  0  0  0  0  0  0  0  0  0  0
  145.6612  168.3185  130.1433 C   0  0  1  0  0  0  0  0  0  0  0  0
  146.1345  169.7110  129.9164 C   0  0  0  0  0  0  0  0  0  0  0  0
  146.1047  170.5938  131.1477 C   0  0  2  0  0  0  0  0  0  0  0  0
  146.9854  170.0668  132.0852 O   0  0  0  0  0  0  0  0  0  0  0  0
  147.7700  170.6818  133.0083 C   0  0  0  0  0  0  0  0  0  0  0  0
  147.6547  170.2655  134.2228 O   0  0  0  0  0  0  0  0  0  0  0  0
  148.7355  171.7595  132.8199 C   0  0  0  0  0  0  0  0  0  0  0  0
  150.0320  171.4452  132.1867 C   0  0  2  0  0  0  0  0  0  0  0  0
  149.8279  171.2912  130.8146 O   0  0  0  0  0  0  0  0  0  0  0  0
  150.8708  170.3553  132.7602 C   0  0  0  0  0  0  0  0  0  0  0  0
  150.6853  170.1892  134.2625 C   0  0  0  0  0  0  0  0  0  0  0  0
  152.3255  170.8355  132.6172 C   0  0  0  0  0  0  0  0  0  0  0  0
  150.6654  169.0194  132.1710 C   0  0  0  0  0  0  0  0  0  0  0  0
  149.5930  168.5200  132.5797 O   0  0  0  0  0  0  0  0  0  0  0  0
  151.4569  168.2471  131.2556 C   0  0  2  0  0  0  0  0  0  0  0  0
  152.9061  167.9908  131.6153 C   0  0  0  0  0  0  0  0  0  0  0  0
  153.1032  166.6585  132.2263 C   0  0  0  0  0  0  0  0  0  0  0  0
  152.1260  165.8036  132.4929 C   0  0  0  0  0  0  0  0  0  0  0  0
  151.4499  168.6893  129.8059 C   0  0  1  0  0  0  0  0  0  0  0  0
  152.4478  167.9071  129.1740 O   0  0  0  0  0  0  0  0  0  0  0  0
  144.7102  170.7203  131.7134 C   0  0  0  0  0  0  0  0  0  0  0  0
  143.7295  171.2427  130.8929 C   0  0  0  0  0  0  0  0  0  0  0  0
  142.4602  171.3598  131.4160 C   0  0  0  0  0  0  0  0  0  0  0  0
  142.2015  170.9563  132.7346 C   0  0  0  0  0  0  0  0  0  0  0  0
  140.8306  170.9176  133.7687 S   0  0  0  0  0  0  0  0  0  0  0  0
  141.5741  170.2523  135.1548 C   0  0  0  0  0  0  0  0  0  0  0  0
  141.0248  169.9038  136.5142 C   0  0  0  0  0  0  0  0  0  0  0  0
  142.8223  170.0959  134.7568 N   0  0  0  0  0  0  0  0  0  0  0  0
  143.1683  170.4382  133.5522 C   0  0  0  0  0  0  0  0  0  0  0  0
  144.4489  170.3343  132.9843 C   0  0  0  0  0  0  0  0  0  0  0  0
  2  1  1  6
  2  3  1  0
  3  4  1  0
  4  5  1  0
  5  6  1  0
  6  7  1  1
  6  8  1  0
  8  9  1  0
  9 10  1  6
 10 11  1  0
 11 12  1  0
 12 13  1  0
 13 14  2  0
 13 15  1  0
 15 16  1  0
 16 17  1  6
 16 18  1  0
 18 19  1  0
 18 20  1  0
 18 21  1  0
 21 22  2  0
 21 23  1  0
 23 24  1  1
 24 25  1  0
 25 26  2  0
 23 27  1  0
 27 28  1  6
 11 29  1  1
 29 30  2  0
 30 31  1  0
 31 32  2  0
 32 33  1  0
 33 34  1  0
 34 35  1  0
 34 36  2  0
 36 37  1  0
 37 38  2  0
 27  2  1  0
 38 29  1  0
  9  6  1  0
 37 32  1  0
M  END
$$$$
