
     RDKit          3D

 38 41  0  0  0  0  0  0  0  0999 V2000
  186.5737  164.9346  137.6976 C   0  0  0  0  0  0  0  0  0  0  0  0
  187.0423  163.5805  138.2324 C   0  0  1  0  0  0  0  0  0  0  0  0
  188.4095  163.2786  137.6974 C   0  0  0  0  0  0  0  0  0  0  0  0
  188.3348  162.0179  136.8617 C   0  0  0  0  0  0  0  0  0  0  0  0
  187.5187  162.3696  135.6095 C   0  0  0  0  0  0  0  0  0  0  0  0
  187.1363  161.1323  134.8861 C   0  0  1  0  0  0  0  0  0  0  0  0
  188.1742  160.5448  133.9269 C   0  0  0  0  0  0  0  0  0  0  0  0
  186.6511  160.0862  135.8338 O   0  0  0  0  0  0  0  0  0  0  0  0
  185.8255  160.6441  134.8560 C   0  0  1  0  0  0  0  0  0  0  0  0
  184.6652  161.4605  135.3048 C   0  0  0  0  0  0  0  0  0  0  0  0
  183.5669  160.6705  135.9875 C   0  0  2  0  0  0  0  0  0  0  0  0
  184.0853  160.1179  137.1529 O   0  0  0  0  0  0  0  0  0  0  0  0
  183.5002  159.8731  138.3544 C   0  0  0  0  0  0  0  0  0  0  0  0
  183.6172  158.6736  138.8118 O   0  0  0  0  0  0  0  0  0  0  0  0
  182.7488  160.7842  139.2115 C   0  0  0  0  0  0  0  0  0  0  0  0
  183.4890  161.8056  139.9792 C   0  0  2  0  0  0  0  0  0  0  0  0
  183.8687  162.8258  139.1057 O   0  0  0  0  0  0  0  0  0  0  0  0
  184.6062  161.3742  140.8658 C   0  0  0  0  0  0  0  0  0  0  0  0
  184.4097  159.9747  141.4330 C   0  0  0  0  0  0  0  0  0  0  0  0
  184.5297  162.2888  142.1006 C   0  0  0  0  0  0  0  0  0  0  0  0
  185.9455  161.3829  140.2491 C   0  0  0  0  0  0  0  0  0  0  0  0
  186.0773  160.4097  139.4731 O   0  0  0  0  0  0  0  0  0  0  0  0
  187.0569  162.2804  140.3913 C   0  0  2  0  0  0  0  0  0  0  0  0
  187.5742  162.5499  141.7895 C   0  0  0  0  0  0  0  0  0  0  0  0
  188.3659  161.4192  142.3203 C   0  0  0  0  0  0  0  0  0  0  0  0
  187.8991  160.5049  143.1586 C   0  0  0  0  0  0  0  0  0  0  0  0
  186.9344  163.6311  139.7149 C   0  0  1  0  0  0  0  0  0  0  0  0
  188.0464  164.3790  140.1744 O   0  0  0  0  0  0  0  0  0  0  0  0
  182.9952  159.6064  135.0811 C   0  0  0  0  0  0  0  0  0  0  0  0
  181.6546  159.6897  134.7592 C   0  0  0  0  0  0  0  0  0  0  0  0
  181.1377  158.7135  133.9356 C   0  0  0  0  0  0  0  0  0  0  0  0
  181.9639  157.6858  133.4565 C   0  0  0  0  0  0  0  0  0  0  0  0
  181.7661  156.3105  132.4467 S   0  0  0  0  0  0  0  0  0  0  0  0
  183.3696  155.7247  132.4947 C   0  0  0  0  0  0  0  0  0  0  0  0
  184.0166  154.5273  131.8476 C   0  0  0  0  0  0  0  0  0  0  0  0
  183.9674  156.6052  133.2746 N   0  0  0  0  0  0  0  0  0  0  0  0
  183.2922  157.5976  133.7717 C   0  0  0  0  0  0  0  0  0  0  0  0
  183.7828  158.6098  134.6130 C   0  0  0  0  0  0  0  0  0  0  0  0
  2  1  1  6
  2  3  1  0
  3  4  1  0
  4  5  1  0
  5  6  1  0
  6  7  1  6
  6  8  1  0
  8  9  1  0
  9 10  1  1
 10 11  1  0
 11 12  1  0
 12 13  1  0
 13 14  2  0
 13 15  1  0
 15 16  1  0
 16 17  1  6
 16 18  1  0
 18 19  1  0
 18 20  1  0
 18 21  1  0
 21 22  2  0
 21 23  1  0
 23 24  1  1
 24 25  1  0
 25 26  2  0
 23 27  1  0
 27 28  1  1
 11 29  1  6
 29 30  2  0
 30 31  1  0
 31 32  2  0
 32 33  1  0
 33 34  1  0
 34 35  1  0
 34 36  2  0
 36 37  1  0
 37 38  2  0
 27  2  1  0
 38 29  1  0
  9  6  1  0
 37 32  1  0
M  END
$$$$
