
     RDKit          3D

 38 41  0  0  0  0  0  0  0  0999 V2000
  192.7879  164.1765  122.5077 C   0  0  0  0  0  0  0  0  0  0  0  0
  192.2655  163.8338  121.1117 C   0  0  1  0  0  0  0  0  0  0  0  0
  191.2128  164.8246  120.7156 C   0  0  0  0  0  0  0  0  0  0  0  0
  189.9069  164.0863  120.5079 C   0  0  0  0  0  0  0  0  0  0  0  0
  189.4531  163.6003  121.8920 C   0  0  0  0  0  0  0  0  0  0  0  0
  188.3531  162.6152  121.7508 C   0  0  1  0  0  0  0  0  0  0  0  0
  186.9388  163.1779  121.5912 C   0  0  0  0  0  0  0  0  0  0  0  0
  188.6492  161.6336  120.6660 O   0  0  0  0  0  0  0  0  0  0  0  0
  188.5199  161.2489  122.0018 C   0  0  1  0  0  0  0  0  0  0  0  0
  189.7230  160.7112  122.6930 C   0  0  0  0  0  0  0  0  0  0  0  0
  190.1802  159.3547  122.1958 C   0  0  2  0  0  0  0  0  0  0  0  0
  190.5616  159.4824  120.8652 O   0  0  0  0  0  0  0  0  0  0  0  0
  191.5319  158.8483  120.1564 C   0  0  0  0  0  0  0  0  0  0  0  0
  191.1620  158.2941  119.0529 O   0  0  0  0  0  0  0  0  0  0  0  0
  192.9496  158.7024  120.4692 C   0  0  0  0  0  0  0  0  0  0  0  0
  193.8357  159.8713  120.2989 C   0  0  2  0  0  0  0  0  0  0  0  0
  193.6179  160.7495  121.3615 O   0  0  0  0  0  0  0  0  0  0  0  0
  193.8646  160.5704  118.9833 C   0  0  0  0  0  0  0  0  0  0  0  0
  193.5758  159.6435  117.8101 C   0  0  0  0  0  0  0  0  0  0  0  0
  195.3293  160.9910  118.7716 C   0  0  0  0  0  0  0  0  0  0  0  0
  192.9344  161.7064  118.8477 C   0  0  0  0  0  0  0  0  0  0  0  0
  191.7613  161.2970  118.6962 O   0  0  0  0  0  0  0  0  0  0  0  0
  193.1511  163.1255  118.8611 C   0  0  2  0  0  0  0  0  0  0  0  0
  194.1676  163.6951  117.8930 C   0  0  0  0  0  0  0  0  0  0  0  0
  193.5276  164.3589  116.7367 C   0  0  0  0  0  0  0  0  0  0  0  0
  192.7222  163.7535  115.8756 C   0  0  0  0  0  0  0  0  0  0  0  0
  193.4434  163.7586  120.2068 C   0  0  1  0  0  0  0  0  0  0  0  0
  193.8140  165.0947  119.9161 O   0  0  0  0  0  0  0  0  0  0  0  0
  189.1068  158.3055  122.3621 C   0  0  0  0  0  0  0  0  0  0  0  0
  189.0666  157.2768  121.4413 C   0  0  0  0  0  0  0  0  0  0  0  0
  188.0823  156.3250  121.5955 C   0  0  0  0  0  0  0  0  0  0  0  0
  187.1690  156.4213  122.6562 C   0  0  0  0  0  0  0  0  0  0  0  0
  185.8299  155.5057  123.2209 S   0  0  0  0  0  0  0  0  0  0  0  0
  185.4110  156.4687  124.5677 C   0  0  0  0  0  0  0  0  0  0  0  0
  184.3186  156.3283  125.5964 C   0  0  0  0  0  0  0  0  0  0  0  0
  186.3106  157.4325  124.5150 N   0  0  0  0  0  0  0  0  0  0  0  0
  187.2035  157.4376  123.5713 C   0  0  0  0  0  0  0  0  0  0  0  0
  188.2200  158.3882  123.3816 C   0  0  0  0  0  0  0  0  0  0  0  0
  2  1  1  1
  2  3  1  0
  3  4  1  0
  4  5  1  0
  5  6  1  0
  6  7  1  6
  6  8  1  0
  8  9  1  0
  9 10  1  1
 10 11  1  0
 11 12  1  0
 12 13  1  0
 13 14  2  0
 13 15  1  0
 15 16  1  0
 16 17  1  1
 16 18  1  0
 18 19  1  0
 18 20  1  0
 18 21  1  0
 21 22  2  0
 21 23  1  0
 23 24  1  6
 24 25  1  0
 25 26  2  0
 23 27  1  0
 27 28  1  6
 11 29  1  6
 29 30  2  0
 30 31  1  0
 31 32  2  0
 32 33  1  0
 33 34  1  0
 34 35  1  0
 34 36  2  0
 36 37  1  0
 37 38  2  0
 27  2  1  0
 38 29  1  0
  9  6  1  0
 37 32  1  0
M  END
$$$$
