
     RDKit          3D

 38 41  0  0  0  0  0  0  0  0999 V2000
  185.1749  160.0721  132.7905 C   0  0  0  0  0  0  0  0  0  0  0  0
  184.2983  161.1145  133.4865 C   0  0  1  0  0  0  0  0  0  0  0  0
  184.5133  162.4536  132.8484 C   0  0  0  0  0  0  0  0  0  0  0  0
  185.0702  163.4021  133.8895 C   0  0  0  0  0  0  0  0  0  0  0  0
  186.4904  162.9152  134.2112 C   0  0  0  0  0  0  0  0  0  0  0  0
  186.9974  163.5920  135.4299 C   0  0  1  0  0  0  0  0  0  0  0  0
  187.6190  164.9779  135.2418 C   0  0  0  0  0  0  0  0  0  0  0  0
  185.9530  163.6294  136.4956 O   0  0  0  0  0  0  0  0  0  0  0  0
  187.1534  162.9346  136.6550 C   0  0  1  0  0  0  0  0  0  0  0  0
  187.0919  161.4525  136.7725 C   0  0  0  0  0  0  0  0  0  0  0  0
  186.4622  160.9489  138.0556 C   0  0  2  0  0  0  0  0  0  0  0  0
  185.1356  161.3636  138.0839 O   0  0  0  0  0  0  0  0  0  0  0  0
  184.0299  160.7630  138.5963 C   0  0  0  0  0  0  0  0  0  0  0  0
  183.3211  161.4706  139.4079 O   0  0  0  0  0  0  0  0  0  0  0  0
  183.5238  159.4154  138.3574 C   0  0  0  0  0  0  0  0  0  0  0  0
  182.8673  159.1247  137.0671 C   0  0  2  0  0  0  0  0  0  0  0  0
  183.8533  159.0058  136.0864 O   0  0  0  0  0  0  0  0  0  0  0  0
  181.7301  159.9807  136.6259 C   0  0  0  0  0  0  0  0  0  0  0  0
  180.9287  160.5514  137.7882 C   0  0  0  0  0  0  0  0  0  0  0  0
  180.7437  159.0287  135.9276 C   0  0  0  0  0  0  0  0  0  0  0  0
  182.0929  161.1286  135.7746 C   0  0  0  0  0  0  0  0  0  0  0  0
  182.6158  162.0355  136.4606 O   0  0  0  0  0  0  0  0  0  0  0  0
  181.9483  161.3554  134.3644 C   0  0  2  0  0  0  0  0  0  0  0  0
  180.5680  161.1979  133.7603 C   0  0  0  0  0  0  0  0  0  0  0  0
  180.2639  159.7912  133.4198 C   0  0  0  0  0  0  0  0  0  0  0  0
  179.5906  158.9590  134.2014 C   0  0  0  0  0  0  0  0  0  0  0  0
  182.9003  160.6084  133.4517 C   0  0  1  0  0  0  0  0  0  0  0  0
  182.4192  160.8439  132.1402 O   0  0  0  0  0  0  0  0  0  0  0  0
  187.2141  161.4275  139.2747 C   0  0  0  0  0  0  0  0  0  0  0  0
  188.2411  160.6343  139.7479 C   0  0  0  0  0  0  0  0  0  0  0  0
  188.9205  161.0739  140.8631 C   0  0  0  0  0  0  0  0  0  0  0  0
  188.5621  162.2846  141.4747 C   0  0  0  0  0  0  0  0  0  0  0  0
  189.1035  163.1932  142.8282 S   0  0  0  0  0  0  0  0  0  0  0  0
  188.0115  164.5012  142.7119 C   0  0  0  0  0  0  0  0  0  0  0  0
  187.8409  165.7392  143.5541 C   0  0  0  0  0  0  0  0  0  0  0  0
  187.2957  164.1766  141.6521 N   0  0  0  0  0  0  0  0  0  0  0  0
  187.5460  163.0746  141.0111 C   0  0  0  0  0  0  0  0  0  0  0  0
  186.8770  162.5939  139.8733 C   0  0  0  0  0  0  0  0  0  0  0  0
  2  1  1  6
  2  3  1  0
  3  4  1  0
  4  5  1  0
  5  6  1  0
  6  7  1  6
  6  8  1  0
  8  9  1  0
  9 10  1  6
 10 11  1  0
 11 12  1  0
 12 13  1  0
 13 14  2  0
 13 15  1  0
 15 16  1  0
 16 17  1  6
 16 18  1  0
 18 19  1  0
 18 20  1  0
 18 21  1  0
 21 22  2  0
 21 23  1  0
 23 24  1  6
 24 25  1  0
 25 26  2  0
 23 27  1  0
 27 28  1  6
 11 29  1  1
 29 30  2  0
 30 31  1  0
 31 32  2  0
 32 33  1  0
 33 34  1  0
 34 35  1  0
 34 36  2  0
 36 37  1  0
 37 38  2  0
 27  2  1  0
 38 29  1  0
  9  6  1  0
 37 32  1  0
M  END
$$$$
