
     RDKit          3D

 38 41  0  0  0  0  0  0  0  0999 V2000
  112.1763  171.4556  143.8146 C   0  0  0  0  0  0  0  0  0  0  0  0
  113.4869  171.1014  144.5188 C   0  0  1  0  0  0  0  0  0  0  0  0
  114.4815  172.2023  144.3056 C   0  0  0  0  0  0  0  0  0  0  0  0
  115.6697  171.6420  143.5521 C   0  0  0  0  0  0  0  0  0  0  0  0
  115.1754  171.3130  142.1361 C   0  0  0  0  0  0  0  0  0  0  0  0
  116.1796  170.4841  141.4255 C   0  0  1  0  0  0  0  0  0  0  0  0
  117.3322  171.2275  140.7463 C   0  0  0  0  0  0  0  0  0  0  0  0
  116.7059  169.4040  142.3111 O   0  0  0  0  0  0  0  0  0  0  0  0
  115.9853  169.1267  141.1480 C   0  0  1  0  0  0  0  0  0  0  0  0
  114.6569  168.4712  141.2894 C   0  0  0  0  0  0  0  0  0  0  0  0
  114.7122  167.0353  141.7707 C   0  0  2  0  0  0  0  0  0  0  0  0
  115.2529  167.0238  143.0513 O   0  0  0  0  0  0  0  0  0  0  0  0
  114.9977  166.2168  144.1140 C   0  0  0  0  0  0  0  0  0  0  0  0
  116.0199  165.6507  144.6585 O   0  0  0  0  0  0  0  0  0  0  0  0
  113.7170  165.8944  144.7345 C   0  0  0  0  0  0  0  0  0  0  0  0
  113.0625  166.9149  145.5775 C   0  0  2  0  0  0  0  0  0  0  0  0
  112.4969  167.8806  144.7435 O   0  0  0  0  0  0  0  0  0  0  0  0
  113.8263  167.5182  146.7058 C   0  0  0  0  0  0  0  0  0  0  0  0
  114.8556  166.5682  147.3033 C   0  0  0  0  0  0  0  0  0  0  0  0
  112.8032  167.7159  147.8377 C   0  0  0  0  0  0  0  0  0  0  0  0
  114.5515  168.7620  146.3879 C   0  0  0  0  0  0  0  0  0  0  0  0
  115.5793  168.5117  145.7188 O   0  0  0  0  0  0  0  0  0  0  0  0
  114.2792  170.1349  146.7073 C   0  0  2  0  0  0  0  0  0  0  0  0
  114.0707  170.4944  148.1642 C   0  0  0  0  0  0  0  0  0  0  0  0
  114.9386  169.7051  149.0645 C   0  0  0  0  0  0  0  0  0  0  0  0
  116.2271  169.9437  149.2636 C   0  0  0  0  0  0  0  0  0  0  0  0
  113.1580  170.8051  145.9386 C   0  0  1  0  0  0  0  0  0  0  0  0
  112.9655  172.0551  146.5768 O   0  0  0  0  0  0  0  0  0  0  0  0
  115.5055  166.1590  140.8308 C   0  0  0  0  0  0  0  0  0  0  0  0
  114.8734  165.7038  139.6902 C   0  0  0  0  0  0  0  0  0  0  0  0
  115.6008  164.9011  138.8387 C   0  0  0  0  0  0  0  0  0  0  0  0
  116.9309  164.5742  139.1431 C   0  0  0  0  0  0  0  0  0  0  0  0
  118.1738  163.6437  138.4085 S   0  0  0  0  0  0  0  0  0  0  0  0
  119.3980  163.8857  139.5745 C   0  0  0  0  0  0  0  0  0  0  0  0
  120.8173  163.3853  139.6528 C   0  0  0  0  0  0  0  0  0  0  0  0
  118.7962  164.6596  140.4576 N   0  0  0  0  0  0  0  0  0  0  0  0
  117.5625  165.0217  140.2710 C   0  0  0  0  0  0  0  0  0  0  0  0
  116.7895  165.8369  141.1141 C   0  0  0  0  0  0  0  0  0  0  0  0
  2  1  1  6
  2  3  1  0
  3  4  1  0
  4  5  1  0
  5  6  1  0
  6  7  1  6
  6  8  1  0
  8  9  1  0
  9 10  1  1
 10 11  1  0
 11 12  1  0
 12 13  1  0
 13 14  2  0
 13 15  1  0
 15 16  1  0
 16 17  1  6
 16 18  1  0
 18 19  1  0
 18 20  1  0
 18 21  1  0
 21 22  2  0
 21 23  1  0
 23 24  1  1
 24 25  1  0
 25 26  2  0
 23 27  1  0
 27 28  1  1
 11 29  1  6
 29 30  2  0
 30 31  1  0
 31 32  2  0
 32 33  1  0
 33 34  1  0
 34 35  1  0
 34 36  2  0
 36 37  1  0
 37 38  2  0
 27  2  1  0
 38 29  1  0
  9  6  1  0
 37 32  1  0
M  END
$$$$
