
     RDKit          3D

 38 41  0  0  0  0  0  0  0  0999 V2000
  148.1751  166.2644  133.9210 C   0  0  0  0  0  0  0  0  0  0  0  0
  147.3346  167.1666  133.0161 C   0  0  1  0  0  0  0  0  0  0  0  0
  145.9131  166.6913  133.0190 C   0  0  0  0  0  0  0  0  0  0  0  0
  145.5359  166.2844  131.6098 C   0  0  0  0  0  0  0  0  0  0  0  0
  146.3460  165.0207  131.2866 C   0  0  0  0  0  0  0  0  0  0  0  0
  146.2741  164.7267  129.8344 C   0  0  1  0  0  0  0  0  0  0  0  0
  145.0491  163.9492  129.3474 C   0  0  0  0  0  0  0  0  0  0  0  0
  146.4584  165.9684  129.0269 O   0  0  0  0  0  0  0  0  0  0  0  0
  147.3590  164.9033  128.9689 C   0  0  1  0  0  0  0  0  0  0  0  0
  148.7423  165.1306  129.4680 C   0  0  0  0  0  0  0  0  0  0  0  0
  149.5725  166.0682  128.6148 C   0  0  2  0  0  0  0  0  0  0  0  0
  148.9756  167.3234  128.6364 O   0  0  0  0  0  0  0  0  0  0  0  0
  149.5229  168.5662  128.5936 C   0  0  0  0  0  0  0  0  0  0  0  0
  149.0597  169.3625  127.6918 O   0  0  0  0  0  0  0  0  0  0  0  0
  150.5730  169.1355  129.4316 C   0  0  0  0  0  0  0  0  0  0  0  0
  150.2406  169.5222  130.8174 C   0  0  2  0  0  0  0  0  0  0  0  0
  150.1523  168.3635  131.5905 O   0  0  0  0  0  0  0  0  0  0  0  0
  149.0986  170.4496  131.0545 C   0  0  0  0  0  0  0  0  0  0  0  0
  148.8754  171.4248  129.9065 C   0  0  0  0  0  0  0  0  0  0  0  0
  149.5330  171.3483  132.2253 C   0  0  0  0  0  0  0  0  0  0  0  0
  147.7969  169.8029  131.3027 C   0  0  0  0  0  0  0  0  0  0  0  0
  147.3185  169.3562  130.2358 O   0  0  0  0  0  0  0  0  0  0  0  0
  147.0368  169.6166  132.5063 C   0  0  2  0  0  0  0  0  0  0  0  0
  146.7147  170.8423  133.3364 C   0  0  0  0  0  0  0  0  0  0  0  0
  147.7608  171.1269  134.3423 C   0  0  0  0  0  0  0  0  0  0  0  0
  148.6135  170.2278  134.8127 C   0  0  0  0  0  0  0  0  0  0  0  0
  147.5402  168.5660  133.4758 C   0  0  1  0  0  0  0  0  0  0  0  0
  146.7509  168.7272  134.6411 O   0  0  0  0  0  0  0  0  0  0  0  0
  149.7238  165.5554  127.2024 C   0  0  0  0  0  0  0  0  0  0  0  0
  149.4648  166.4344  126.1691 C   0  0  0  0  0  0  0  0  0  0  0  0
  149.6002  165.9596  124.8827 C   0  0  0  0  0  0  0  0  0  0  0  0
  149.9877  164.6297  124.6597 C   0  0  0  0  0  0  0  0  0  0  0  0
  150.2731  163.6396  123.2855 S   0  0  0  0  0  0  0  0  0  0  0  0
  150.6962  162.1957  124.0935 C   0  0  0  0  0  0  0  0  0  0  0  0
  151.0910  160.8375  123.5734 C   0  0  0  0  0  0  0  0  0  0  0  0
  150.5978  162.5443  125.3623 N   0  0  0  0  0  0  0  0  0  0  0  0
  150.2457  163.7542  125.6787 C   0  0  0  0  0  0  0  0  0  0  0  0
  150.0971  164.2741  126.9751 C   0  0  0  0  0  0  0  0  0  0  0  0
  2  1  1  1
  2  3  1  0
  3  4  1  0
  4  5  1  0
  5  6  1  0
  6  7  1  1
  6  8  1  0
  8  9  1  0
  9 10  1  1
 10 11  1  0
 11 12  1  0
 12 13  1  0
 13 14  2  0
 13 15  1  0
 15 16  1  0
 16 17  1  1
 16 18  1  0
 18 19  1  0
 18 20  1  0
 18 21  1  0
 21 22  2  0
 21 23  1  0
 23 24  1  1
 24 25  1  0
 25 26  2  0
 23 27  1  0
 27 28  1  1
 11 29  1  6
 29 30  2  0
 30 31  1  0
 31 32  2  0
 32 33  1  0
 33 34  1  0
 34 35  1  0
 34 36  2  0
 36 37  1  0
 37 38  2  0
 27  2  1  0
 38 29  1  0
  9  6  1  0
 37 32  1  0
M  END
$$$$
