
     RDKit          3D

 38 41  0  0  0  0  0  0  0  0999 V2000
  138.9622  184.9560  151.5429 C   0  0  0  0  0  0  0  0  0  0  0  0
  138.7121  185.2228  150.0578 C   0  0  1  0  0  0  0  0  0  0  0  0
  138.3068  186.6535  149.8692 C   0  0  0  0  0  0  0  0  0  0  0  0
  136.9097  186.6878  149.2856 C   0  0  0  0  0  0  0  0  0  0  0  0
  135.9637  186.1786  150.3826 C   0  0  0  0  0  0  0  0  0  0  0  0
  134.6264  185.8903  149.8090 C   0  0  1  0  0  0  0  0  0  0  0  0
  133.6670  187.0740  149.6655 C   0  0  0  0  0  0  0  0  0  0  0  0
  134.7458  185.1561  148.5149 O   0  0  0  0  0  0  0  0  0  0  0  0
  134.1376  184.5907  149.6371 C   0  0  1  0  0  0  0  0  0  0  0  0
  134.7899  183.4092  150.2639 C   0  0  0  0  0  0  0  0  0  0  0  0
  134.7459  182.1479  149.4250 C   0  0  2  0  0  0  0  0  0  0  0  0
  135.4655  182.3739  148.2573 O   0  0  0  0  0  0  0  0  0  0  0  0
  136.2247  181.5333  147.5071 C   0  0  0  0  0  0  0  0  0  0  0  0
  135.9461  181.4824  146.2496 O   0  0  0  0  0  0  0  0  0  0  0  0
  137.3231  180.6689  147.9260 C   0  0  0  0  0  0  0  0  0  0  0  0
  138.6285  181.2846  148.2381 C   0  0  2  0  0  0  0  0  0  0  0  0
  138.5398  181.8987  149.4884 O   0  0  0  0  0  0  0  0  0  0  0  0
  139.2756  182.1610  147.2215 C   0  0  0  0  0  0  0  0  0  0  0  0
  138.9292  181.7697  145.7912 C   0  0  0  0  0  0  0  0  0  0  0  0
  140.7833  181.8746  147.3294 C   0  0  0  0  0  0  0  0  0  0  0  0
  138.9727  183.5993  147.3384 C   0  0  0  0  0  0  0  0  0  0  0  0
  137.8151  183.8386  146.9268 O   0  0  0  0  0  0  0  0  0  0  0  0
  139.7523  184.7036  147.8219 C   0  0  2  0  0  0  0  0  0  0  0  0
  141.1205  184.9251  147.2103 C   0  0  0  0  0  0  0  0  0  0  0  0
  141.9290  183.6871  147.1859 C   0  0  0  0  0  0  0  0  0  0  0  0
  141.4529  182.4753  147.4339 C   0  0  0  0  0  0  0  0  0  0  0  0
  139.9355  184.8043  149.3230 C   0  0  1  0  0  0  0  0  0  0  0  0
  140.8909  185.8331  149.5124 O   0  0  0  0  0  0  0  0  0  0  0  0
  133.3282  181.7237  149.1241 C   0  0  0  0  0  0  0  0  0  0  0  0
  133.0836  181.1200  147.9061 C   0  0  0  0  0  0  0  0  0  0  0  0
  131.7873  180.7391  147.6353 C   0  0  0  0  0  0  0  0  0  0  0  0
  130.7742  180.9678  148.5786 C   0  0  0  0  0  0  0  0  0  0  0  0
  129.0842  180.6752  148.6724 S   0  0  0  0  0  0  0  0  0  0  0  0
  128.7974  181.3261  150.2250 C   0  0  0  0  0  0  0  0  0  0  0  0
  127.5362  181.4478  151.0410 C   0  0  0  0  0  0  0  0  0  0  0  0
  130.0002  181.7299  150.5873 N   0  0  0  0  0  0  0  0  0  0  0  0
  131.0099  181.5652  149.7865 C   0  0  0  0  0  0  0  0  0  0  0  0
  132.3424  181.9393  150.0265 C   0  0  0  0  0  0  0  0  0  0  0  0
  2  1  1  1
  2  3  1  0
  3  4  1  0
  4  5  1  0
  5  6  1  0
  6  7  1  6
  6  8  1  0
  8  9  1  0
  9 10  1  1
 10 11  1  0
 11 12  1  0
 12 13  1  0
 13 14  2  0
 13 15  1  0
 15 16  1  0
 16 17  1  1
 16 18  1  0
 18 19  1  0
 18 20  1  0
 18 21  1  0
 21 22  2  0
 21 23  1  0
 23 24  1  6
 24 25  1  0
 25 26  2  0
 23 27  1  0
 27 28  1  6
 11 29  1  6
 29 30  2  0
 30 31  1  0
 31 32  2  0
 32 33  1  0
 33 34  1  0
 34 35  1  0
 34 36  2  0
 36 37  1  0
 37 38  2  0
 27  2  1  0
 38 29  1  0
  9  6  1  0
 37 32  1  0
M  END
$$$$
