
     RDKit          3D

 38 41  0  0  0  0  0  0  0  0999 V2000
  187.4482  160.0630  131.6648 C   0  0  0  0  0  0  0  0  0  0  0  0
  187.7927  159.6565  133.0984 C   0  0  1  0  0  0  0  0  0  0  0  0
  188.3447  158.2629  133.1031 C   0  0  0  0  0  0  0  0  0  0  0  0
  187.4293  157.3825  133.9280 C   0  0  0  0  0  0  0  0  0  0  0  0
  186.1166  157.2561  133.1414 C   0  0  0  0  0  0  0  0  0  0  0  0
  185.0607  156.6701  134.0028 C   0  0  1  0  0  0  0  0  0  0  0  0
  185.0286  155.1440  134.1141 C   0  0  0  0  0  0  0  0  0  0  0  0
  185.0704  157.2917  135.3598 O   0  0  0  0  0  0  0  0  0  0  0  0
  183.9819  157.4132  134.4942 C   0  0  1  0  0  0  0  0  0  0  0  0
  183.6505  158.7677  133.9750 C   0  0  0  0  0  0  0  0  0  0  0  0
  183.1133  159.7269  135.0179 C   0  0  2  0  0  0  0  0  0  0  0  0
  184.1062  159.9425  135.9667 O   0  0  0  0  0  0  0  0  0  0  0  0
  184.4113  161.0480  136.6950 C   0  0  0  0  0  0  0  0  0  0  0  0
  184.4927  160.8855  137.9712 O   0  0  0  0  0  0  0  0  0  0  0  0
  184.6625  162.4096  136.2343 C   0  0  0  0  0  0  0  0  0  0  0  0
  185.9489  162.7067  135.5731 C   0  0  2  0  0  0  0  0  0  0  0  0
  185.9057  162.1984  134.2739 O   0  0  0  0  0  0  0  0  0  0  0  0
  187.2181  162.3626  136.2739 C   0  0  0  0  0  0  0  0  0  0  0  0
  187.0970  162.4271  137.7905 C   0  0  0  0  0  0  0  0  0  0  0  0
  188.1992  163.4973  135.9317 C   0  0  0  0  0  0  0  0  0  0  0  0
  187.7746  161.0331  135.9626 C   0  0  0  0  0  0  0  0  0  0  0  0
  187.1180  160.1369  136.5391 O   0  0  0  0  0  0  0  0  0  0  0  0
  188.8868  160.6295  135.1496 C   0  0  2  0  0  0  0  0  0  0  0  0
  190.2370  161.2530  135.4380 C   0  0  0  0  0  0  0  0  0  0  0  0
  190.8975  160.6389  136.6102 C   0  0  0  0  0  0  0  0  0  0  0  0
  191.5515  159.4864  136.5842 C   0  0  0  0  0  0  0  0  0  0  0  0
  188.6963  160.7022  133.6478 C   0  0  1  0  0  0  0  0  0  0  0  0
  189.9786  160.4557  133.0983 O   0  0  0  0  0  0  0  0  0  0  0  0
  181.8460  159.2095  135.6558 C   0  0  0  0  0  0  0  0  0  0  0  0
  181.9696  158.4341  136.7921 C   0  0  0  0  0  0  0  0  0  0  0  0
  180.8102  157.9612  137.3671 C   0  0  0  0  0  0  0  0  0  0  0  0
  179.5651  158.2707  136.7993 C   0  0  0  0  0  0  0  0  0  0  0  0
  177.9223  157.9168  137.1552 S   0  0  0  0  0  0  0  0  0  0  0  0
  177.1927  158.7604  135.8618 C   0  0  0  0  0  0  0  0  0  0  0  0
  175.7479  158.9348  135.4702 C   0  0  0  0  0  0  0  0  0  0  0  0
  178.2360  159.2645  135.2307 N   0  0  0  0  0  0  0  0  0  0  0  0
  179.4360  159.0381  135.6741 C   0  0  0  0  0  0  0  0  0  0  0  0
  180.6391  159.5016  135.1167 C   0  0  0  0  0  0  0  0  0  0  0  0
  2  1  1  6
  2  3  1  0
  3  4  1  0
  4  5  1  0
  5  6  1  0
  6  7  1  1
  6  8  1  0
  8  9  1  0
  9 10  1  6
 10 11  1  0
 11 12  1  0
 12 13  1  0
 13 14  2  0
 13 15  1  0
 15 16  1  0
 16 17  1  6
 16 18  1  0
 18 19  1  0
 18 20  1  0
 18 21  1  0
 21 22  2  0
 21 23  1  0
 23 24  1  1
 24 25  1  0
 25 26  2  0
 23 27  1  0
 27 28  1  6
 11 29  1  1
 29 30  2  0
 30 31  1  0
 31 32  2  0
 32 33  1  0
 33 34  1  0
 34 35  1  0
 34 36  2  0
 36 37  1  0
 37 38  2  0
 27  2  1  0
 38 29  1  0
  9  6  1  0
 37 32  1  0
M  END
$$$$
