
     RDKit          3D

 38 41  0  0  0  0  0  0  0  0999 V2000
  132.8340  166.8275  153.5178 C   0  0  0  0  0  0  0  0  0  0  0  0
  133.5981  165.5513  153.1619 C   0  0  1  0  0  0  0  0  0  0  0  0
  133.2876  165.1615  151.7482 C   0  0  0  0  0  0  0  0  0  0  0  0
  132.6224  163.8010  151.7563 C   0  0  0  0  0  0  0  0  0  0  0  0
  131.2405  163.9923  152.3976 C   0  0  0  0  0  0  0  0  0  0  0  0
  130.6432  162.6743  152.7241 C   0  0  1  0  0  0  0  0  0  0  0  0
  129.9110  161.9490  151.5927 C   0  0  0  0  0  0  0  0  0  0  0  0
  131.6500  161.7719  153.3563 O   0  0  0  0  0  0  0  0  0  0  0  0
  130.5095  162.2046  154.0352 C   0  0  1  0  0  0  0  0  0  0  0  0
  130.6941  163.0898  155.2169 C   0  0  0  0  0  0  0  0  0  0  0  0
  131.3280  162.4139  156.4160 C   0  0  2  0  0  0  0  0  0  0  0  0
  132.6129  162.0159  156.0652 O   0  0  0  0  0  0  0  0  0  0  0  0
  133.7510  161.9430  156.8036 C   0  0  0  0  0  0  0  0  0  0  0  0
  134.3734  160.8144  156.7820 O   0  0  0  0  0  0  0  0  0  0  0  0
  134.3770  162.9713  157.6282 C   0  0  0  0  0  0  0  0  0  0  0  0
  135.0922  164.0763  156.9592 C   0  0  2  0  0  0  0  0  0  0  0  0
  134.1481  164.9646  156.4417 O   0  0  0  0  0  0  0  0  0  0  0  0
  136.1640  163.7528  155.9759 C   0  0  0  0  0  0  0  0  0  0  0  0
  136.8805  162.4451  156.2850 C   0  0  0  0  0  0  0  0  0  0  0  0
  137.2476  164.8261  156.1785 C   0  0  0  0  0  0  0  0  0  0  0  0
  135.7287  163.6601  154.5702 C   0  0  0  0  0  0  0  0  0  0  0  0
  135.1109  162.5897  154.3720 O   0  0  0  0  0  0  0  0  0  0  0  0
  135.8931  164.5532  153.4583 C   0  0  2  0  0  0  0  0  0  0  0  0
  137.2984  165.0012  153.1125 C   0  0  0  0  0  0  0  0  0  0  0  0
  138.2352  163.8628  152.9957 C   0  0  0  0  0  0  0  0  0  0  0  0
  138.4267  163.1596  151.8886 C   0  0  0  0  0  0  0  0  0  0  0  0
  135.0347  165.8023  153.4533 C   0  0  1  0  0  0  0  0  0  0  0  0
  135.5308  166.5898  152.3853 O   0  0  0  0  0  0  0  0  0  0  0  0
  130.5037  161.2455  156.9019 C   0  0  0  0  0  0  0  0  0  0  0  0
  130.0694  161.2674  158.2129 C   0  0  0  0  0  0  0  0  0  0  0  0
  129.3216  160.1966  158.6518 C   0  0  0  0  0  0  0  0  0  0  0  0
  129.0272  159.1379  157.7793 C   0  0  0  0  0  0  0  0  0  0  0  0
  128.1647  157.6560  157.8812 S   0  0  0  0  0  0  0  0  0  0  0  0
  128.4047  157.1095  156.2810 C   0  0  0  0  0  0  0  0  0  0  0  0
  127.9486  155.8604  155.5719 C   0  0  0  0  0  0  0  0  0  0  0  0
  129.1263  158.0820  155.7570 N   0  0  0  0  0  0  0  0  0  0  0  0
  129.4544  159.1103  156.4800 C   0  0  0  0  0  0  0  0  0  0  0  0
  130.2136  160.2184  156.0691 C   0  0  0  0  0  0  0  0  0  0  0  0
  2  1  1  6
  2  3  1  0
  3  4  1  0
  4  5  1  0
  5  6  1  0
  6  7  1  6
  6  8  1  0
  8  9  1  0
  9 10  1  1
 10 11  1  0
 11 12  1  0
 12 13  1  0
 13 14  2  0
 13 15  1  0
 15 16  1  0
 16 17  1  6
 16 18  1  0
 18 19  1  0
 18 20  1  0
 18 21  1  0
 21 22  2  0
 21 23  1  0
 23 24  1  1
 24 25  1  0
 25 26  2  0
 23 27  1  0
 27 28  1  6
 11 29  1  6
 29 30  2  0
 30 31  1  0
 31 32  2  0
 32 33  1  0
 33 34  1  0
 34 35  1  0
 34 36  2  0
 36 37  1  0
 37 38  2  0
 27  2  1  0
 38 29  1  0
  9  6  1  0
 37 32  1  0
M  END
$$$$
