
     RDKit          3D

 38 41  0  0  0  0  0  0  0  0999 V2000
  189.8000  161.4880  140.7856 C   0  0  0  0  0  0  0  0  0  0  0  0
  188.6300  162.4671  140.8942 C   0  0  1  0  0  0  0  0  0  0  0  0
  188.6341  163.1010  142.2524 C   0  0  0  0  0  0  0  0  0  0  0  0
  187.3467  162.7353  142.9612 C   0  0  0  0  0  0  0  0  0  0  0  0
  187.4212  161.2304  143.2569 C   0  0  0  0  0  0  0  0  0  0  0  0
  186.0893  160.7259  143.6714 C   0  0  1  0  0  0  0  0  0  0  0  0
  185.7136  160.8989  145.1450 C   0  0  0  0  0  0  0  0  0  0  0  0
  185.0130  161.2697  142.7917 O   0  0  0  0  0  0  0  0  0  0  0  0
  185.3007  159.9052  142.8578 C   0  0  1  0  0  0  0  0  0  0  0  0
  185.8400  159.2455  141.6378 C   0  0  0  0  0  0  0  0  0  0  0  0
  184.8503  159.1292  140.4962 C   0  0  2  0  0  0  0  0  0  0  0  0
  184.5049  160.4113  140.0844 O   0  0  0  0  0  0  0  0  0  0  0  0
  184.1960  160.8935  138.8524 C   0  0  0  0  0  0  0  0  0  0  0  0
  183.0873  161.5441  138.7563 O   0  0  0  0  0  0  0  0  0  0  0  0
  184.9480  160.7787  137.6072 C   0  0  0  0  0  0  0  0  0  0  0  0
  186.1588  161.6059  137.4331 C   0  0  2  0  0  0  0  0  0  0  0  0
  187.1889  161.0463  138.1907 O   0  0  0  0  0  0  0  0  0  0  0  0
  186.0584  163.0813  137.6160 C   0  0  0  0  0  0  0  0  0  0  0  0
  184.6871  163.6343  137.2518 C   0  0  0  0  0  0  0  0  0  0  0  0
  186.9967  163.6927  136.5612 C   0  0  0  0  0  0  0  0  0  0  0  0
  186.3522  163.5738  138.9744 C   0  0  0  0  0  0  0  0  0  0  0  0
  185.3963  163.3313  139.7452 O   0  0  0  0  0  0  0  0  0  0  0  0
  187.4960  164.2488  139.5192 C   0  0  2  0  0  0  0  0  0  0  0  0
  187.9605  165.5183  138.8353 C   0  0  0  0  0  0  0  0  0  0  0  0
  188.7204  165.2405  137.5973 C   0  0  0  0  0  0  0  0  0  0  0  0
  188.1738  164.8607  136.4511 C   0  0  0  0  0  0  0  0  0  0  0  0
  188.7376  163.4106  139.7496 C   0  0  1  0  0  0  0  0  0  0  0  0
  189.7546  164.3376  140.0860 O   0  0  0  0  0  0  0  0  0  0  0  0
  183.6305  158.3309  140.8905 C   0  0  0  0  0  0  0  0  0  0  0  0
  182.5698  158.3004  140.0064 C   0  0  0  0  0  0  0  0  0  0  0  0
  181.4580  157.5741  140.3736 C   0  0  0  0  0  0  0  0  0  0  0  0
  181.4311  156.9009  141.6043 C   0  0  0  0  0  0  0  0  0  0  0  0
  180.3074  155.9133  142.4483 S   0  0  0  0  0  0  0  0  0  0  0  0
  181.2373  155.6055  143.8474 C   0  0  0  0  0  0  0  0  0  0  0  0
  180.9427  154.8006  145.0868 C   0  0  0  0  0  0  0  0  0  0  0  0
  182.3499  156.2692  143.5972 N   0  0  0  0  0  0  0  0  0  0  0  0
  182.4782  156.9272  142.4843 C   0  0  0  0  0  0  0  0  0  0  0  0
  183.5932  157.6774  142.0755 C   0  0  0  0  0  0  0  0  0  0  0  0
  2  1  1  1
  2  3  1  0
  3  4  1  0
  4  5  1  0
  5  6  1  0
  6  7  1  1
  6  8  1  0
  8  9  1  0
  9 10  1  6
 10 11  1  0
 11 12  1  0
 12 13  1  0
 13 14  2  0
 13 15  1  0
 15 16  1  0
 16 17  1  1
 16 18  1  0
 18 19  1  0
 18 20  1  0
 18 21  1  0
 21 22  2  0
 21 23  1  0
 23 24  1  6
 24 25  1  0
 25 26  2  0
 23 27  1  0
 27 28  1  1
 11 29  1  1
 29 30  2  0
 30 31  1  0
 31 32  2  0
 32 33  1  0
 33 34  1  0
 34 35  1  0
 34 36  2  0
 36 37  1  0
 37 38  2  0
 27  2  1  0
 38 29  1  0
  9  6  1  0
 37 32  1  0
M  END
$$$$
