
     RDKit          3D

 38 41  0  0  0  0  0  0  0  0999 V2000
  202.6470  136.0802  135.8804 C   0  0  0  0  0  0  0  0  0  0  0  0
  201.7721  136.0203  134.6274 C   0  0  1  0  0  0  0  0  0  0  0  0
  200.5756  135.1581  134.8949 C   0  0  0  0  0  0  0  0  0  0  0  0
  200.6102  133.9753  133.9497 C   0  0  0  0  0  0  0  0  0  0  0  0
  201.7971  133.1027  134.3824 C   0  0  0  0  0  0  0  0  0  0  0  0
  202.0938  132.0915  133.3385 C   0  0  1  0  0  0  0  0  0  0  0  0
  201.2630  130.8064  133.3664 C   0  0  0  0  0  0  0  0  0  0  0  0
  202.0632  132.7025  131.9770 O   0  0  0  0  0  0  0  0  0  0  0  0
  203.2266  132.1542  132.5200 C   0  0  1  0  0  0  0  0  0  0  0  0
  204.3624  133.0716  132.8076 C   0  0  0  0  0  0  0  0  0  0  0  0
  205.0343  133.6458  131.5767 C   0  0  2  0  0  0  0  0  0  0  0  0
  204.1077  134.4286  130.8976 O   0  0  0  0  0  0  0  0  0  0  0  0
  204.2703  135.5651  130.1712 C   0  0  0  0  0  0  0  0  0  0  0  0
  203.7792  135.5552  128.9793 O   0  0  0  0  0  0  0  0  0  0  0  0
  204.9297  136.8102  130.5509 C   0  0  0  0  0  0  0  0  0  0  0  0
  204.2398  137.7188  131.4884 C   0  0  2  0  0  0  0  0  0  0  0  0
  204.3431  137.1878  132.7750 O   0  0  0  0  0  0  0  0  0  0  0  0
  202.8553  138.1692  131.1711 C   0  0  0  0  0  0  0  0  0  0  0  0
  202.5850  138.2537  129.6749 C   0  0  0  0  0  0  0  0  0  0  0  0
  202.7782  139.6310  131.6449 C   0  0  0  0  0  0  0  0  0  0  0  0
  201.7736  137.3428  131.7377 C   0  0  0  0  0  0  0  0  0  0  0  0
  201.6590  136.2724  131.0992 O   0  0  0  0  0  0  0  0  0  0  0  0
  200.8831  137.5613  132.8424 C   0  0  2  0  0  0  0  0  0  0  0  0
  200.0675  138.8379  132.8519 C   0  0  0  0  0  0  0  0  0  0  0  0
  200.9019  140.0327  133.1039 C   0  0  0  0  0  0  0  0  0  0  0  0
  202.2081  140.0945  132.8874 C   0  0  0  0  0  0  0  0  0  0  0  0
  201.4724  137.4223  134.2319 C   0  0  1  0  0  0  0  0  0  0  0  0
  200.4616  137.8816  135.1118 O   0  0  0  0  0  0  0  0  0  0  0  0
  205.5958  132.5622  130.6873 C   0  0  0  0  0  0  0  0  0  0  0  0
  205.3215  131.2506  131.0221 C   0  0  0  0  0  0  0  0  0  0  0  0
  205.8402  130.2662  130.2094 C   0  0  0  0  0  0  0  0  0  0  0  0
  206.6139  130.6110  129.0910 C   0  0  0  0  0  0  0  0  0  0  0  0
  207.4329  129.7589  127.8446 S   0  0  0  0  0  0  0  0  0  0  0  0
  208.0621  131.0971  126.9901 C   0  0  0  0  0  0  0  0  0  0  0  0
  208.9112  131.1809  125.7480 C   0  0  0  0  0  0  0  0  0  0  0  0
  207.6160  132.1175  127.6977 N   0  0  0  0  0  0  0  0  0  0  0  0
  206.8891  131.9080  128.7540 C   0  0  0  0  0  0  0  0  0  0  0  0
  206.3438  132.8830  129.6055 C   0  0  0  0  0  0  0  0  0  0  0  0
  2  1  1  1
  2  3  1  0
  3  4  1  0
  4  5  1  0
  5  6  1  0
  6  7  1  6
  6  8  1  0
  8  9  1  0
  9 10  1  1
 10 11  1  0
 11 12  1  0
 12 13  1  0
 13 14  2  0
 13 15  1  0
 15 16  1  0
 16 17  1  1
 16 18  1  0
 18 19  1  0
 18 20  1  0
 18 21  1  0
 21 22  2  0
 21 23  1  0
 23 24  1  6
 24 25  1  0
 25 26  2  0
 23 27  1  0
 27 28  1  1
 11 29  1  6
 29 30  2  0
 30 31  1  0
 31 32  2  0
 32 33  1  0
 33 34  1  0
 34 35  1  0
 34 36  2  0
 36 37  1  0
 37 38  2  0
 27  2  1  0
 38 29  1  0
  9  6  1  0
 37 32  1  0
M  END
$$$$
