
     RDKit          3D

 38 41  0  0  0  0  0  0  0  0999 V2000
  191.3671  161.5447  125.8648 C   0  0  0  0  0  0  0  0  0  0  0  0
  190.1300  161.3893  124.9790 C   0  0  1  0  0  0  0  0  0  0  0  0
  189.2326  160.3362  125.5553 C   0  0  0  0  0  0  0  0  0  0  0  0
  189.1023  159.2093  124.5519 C   0  0  0  0  0  0  0  0  0  0  0  0
  190.4749  158.5248  124.4806 C   0  0  0  0  0  0  0  0  0  0  0  0
  190.5296  157.6129  123.3119 C   0  0  1  0  0  0  0  0  0  0  0  0
  189.9476  156.2104  123.5028 C   0  0  0  0  0  0  0  0  0  0  0  0
  189.9450  158.2595  122.1003 O   0  0  0  0  0  0  0  0  0  0  0  0
  191.2887  157.8872  122.1691 C   0  0  1  0  0  0  0  0  0  0  0  0
  192.3143  158.9650  122.1387 C   0  0  0  0  0  0  0  0  0  0  0  0
  192.4316  159.6841  120.8099 C   0  0  2  0  0  0  0  0  0  0  0  0
  191.2278  160.3308  120.5548 O   0  0  0  0  0  0  0  0  0  0  0  0
  190.9690  161.5040  119.9205 C   0  0  0  0  0  0  0  0  0  0  0  0
  190.1022  161.4577  118.9674 O   0  0  0  0  0  0  0  0  0  0  0  0
  191.5387  162.8248  120.1658 C   0  0  0  0  0  0  0  0  0  0  0  0
  191.0965  163.5758  121.3578 C   0  0  2  0  0  0  0  0  0  0  0  0
  191.7116  163.0226  122.4819 O   0  0  0  0  0  0  0  0  0  0  0  0
  189.6394  163.8078  121.5662 C   0  0  0  0  0  0  0  0  0  0  0  0
  188.8590  163.9012  120.2619 C   0  0  0  0  0  0  0  0  0  0  0  0
  189.5282  165.2199  122.1667 C   0  0  0  0  0  0  0  0  0  0  0  0
  188.9470  162.7978  122.3875 C   0  0  0  0  0  0  0  0  0  0  0  0
  188.7689  161.7466  121.7318 O   0  0  0  0  0  0  0  0  0  0  0  0
  188.4728  162.8298  123.7421 C   0  0  2  0  0  0  0  0  0  0  0  0
  187.5414  163.9567  124.1392 C   0  0  0  0  0  0  0  0  0  0  0  0
  186.6609  164.3727  123.0262 C   0  0  0  0  0  0  0  0  0  0  0  0
  186.0162  163.5351  122.2265 C   0  0  0  0  0  0  0  0  0  0  0  0
  189.5197  162.7378  124.8341 C   0  0  1  0  0  0  0  0  0  0  0  0
  188.8224  162.9960  126.0400 O   0  0  0  0  0  0  0  0  0  0  0  0
  192.7957  158.7380  119.6905 C   0  0  0  0  0  0  0  0  0  0  0  0
  193.7139  157.7431  119.9639 C   0  0  0  0  0  0  0  0  0  0  0  0
  194.0455  156.8858  118.9375 C   0  0  0  0  0  0  0  0  0  0  0  0
  193.4577  157.0402  117.6729 C   0  0  0  0  0  0  0  0  0  0  0  0
  193.5624  156.2417  116.1557 S   0  0  0  0  0  0  0  0  0  0  0  0
  192.4533  157.2035  115.2830 C   0  0  0  0  0  0  0  0  0  0  0  0
  191.9845  157.1403  113.8522 C   0  0  0  0  0  0  0  0  0  0  0  0
  192.0642  158.0781  116.1911 N   0  0  0  0  0  0  0  0  0  0  0  0
  192.5478  158.0234  117.3958 C   0  0  0  0  0  0  0  0  0  0  0  0
  192.2351  158.8774  118.4662 C   0  0  0  0  0  0  0  0  0  0  0  0
  2  1  1  1
  2  3  1  0
  3  4  1  0
  4  5  1  0
  5  6  1  0
  6  7  1  1
  6  8  1  0
  8  9  1  0
  9 10  1  1
 10 11  1  0
 11 12  1  0
 12 13  1  0
 13 14  2  0
 13 15  1  0
 15 16  1  0
 16 17  1  1
 16 18  1  0
 18 19  1  0
 18 20  1  0
 18 21  1  0
 21 22  2  0
 21 23  1  0
 23 24  1  1
 24 25  1  0
 25 26  2  0
 23 27  1  0
 27 28  1  1
 11 29  1  6
 29 30  2  0
 30 31  1  0
 31 32  2  0
 32 33  1  0
 33 34  1  0
 34 35  1  0
 34 36  2  0
 36 37  1  0
 37 38  2  0
 27  2  1  0
 38 29  1  0
  9  6  1  0
 37 32  1  0
M  END
$$$$
