
     RDKit          3D

 38 41  0  0  0  0  0  0  0  0999 V2000
  128.5580  143.0893  138.4464 C   0  0  0  0  0  0  0  0  0  0  0  0
  127.5200  143.5023  137.4019 C   0  0  1  0  0  0  0  0  0  0  0  0
  126.3421  142.5783  137.4762 C   0  0  0  0  0  0  0  0  0  0  0  0
  126.2083  141.8572  136.1512 C   0  0  0  0  0  0  0  0  0  0  0  0
  127.4126  140.9108  136.0435 C   0  0  0  0  0  0  0  0  0  0  0  0
  127.5306  140.3916  134.6589 C   0  0  1  0  0  0  0  0  0  0  0  0
  126.6682  139.1792  134.3005 C   0  0  0  0  0  0  0  0  0  0  0  0
  127.3368  141.4831  133.6594 O   0  0  0  0  0  0  0  0  0  0  0  0
  128.5438  140.7921  133.7811 C   0  0  1  0  0  0  0  0  0  0  0  0
  129.7385  141.5497  134.2425 C   0  0  0  0  0  0  0  0  0  0  0  0
  130.2567  142.5717  133.2509 C   0  0  2  0  0  0  0  0  0  0  0  0
  129.2738  143.5368  133.0634 O   0  0  0  0  0  0  0  0  0  0  0  0
  129.3751  144.8695  132.8198 C   0  0  0  0  0  0  0  0  0  0  0  0
  128.7272  145.3131  131.7975 O   0  0  0  0  0  0  0  0  0  0  0  0
  130.1217  145.8829  133.5579 C   0  0  0  0  0  0  0  0  0  0  0  0
  129.5963  146.3404  134.8598 C   0  0  2  0  0  0  0  0  0  0  0  0
  129.8547  145.3534  135.8122 O   0  0  0  0  0  0  0  0  0  0  0  0
  128.1977  146.8488  134.9363 C   0  0  0  0  0  0  0  0  0  0  0  0
  127.7304  147.5024  133.6428 C   0  0  0  0  0  0  0  0  0  0  0  0
  128.2350  148.0093  135.9457 C   0  0  0  0  0  0  0  0  0  0  0  0
  127.1752  145.8440  135.2813 C   0  0  0  0  0  0  0  0  0  0  0  0
  126.9390  145.1038  134.2999 O   0  0  0  0  0  0  0  0  0  0  0  0
  126.4504  145.5965  136.4955 C   0  0  2  0  0  0  0  0  0  0  0  0
  125.6874  146.7511  137.1118 C   0  0  0  0  0  0  0  0  0  0  0  0
  126.5612  147.9094  137.3980 C   0  0  0  0  0  0  0  0  0  0  0  0
  127.5266  147.9143  138.3062 C   0  0  0  0  0  0  0  0  0  0  0  0
  127.2172  144.9410  137.6266 C   0  0  1  0  0  0  0  0  0  0  0  0
  126.3510  145.0002  138.7460 O   0  0  0  0  0  0  0  0  0  0  0  0
  130.6555  141.9315  131.9426 C   0  0  0  0  0  0  0  0  0  0  0  0
  131.3906  140.7635  131.9972 C   0  0  0  0  0  0  0  0  0  0  0  0
  131.7553  140.1864  130.8003 C   0  0  0  0  0  0  0  0  0  0  0  0
  131.3810  140.7836  129.5872 C   0  0  0  0  0  0  0  0  0  0  0  0
  131.6016  140.4372  127.9193 S   0  0  0  0  0  0  0  0  0  0  0  0
  130.7617  141.7734  127.2669 C   0  0  0  0  0  0  0  0  0  0  0  0
  130.5005  142.1921  125.8430 C   0  0  0  0  0  0  0  0  0  0  0  0
  130.3597  142.4095  128.3508 N   0  0  0  0  0  0  0  0  0  0  0  0
  130.6532  141.9404  129.5264 C   0  0  0  0  0  0  0  0  0  0  0  0
  130.3001  142.4989  130.7659 C   0  0  0  0  0  0  0  0  0  0  0  0
  2  1  1  1
  2  3  1  0
  3  4  1  0
  4  5  1  0
  5  6  1  0
  6  7  1  6
  6  8  1  0
  8  9  1  0
  9 10  1  1
 10 11  1  0
 11 12  1  0
 12 13  1  0
 13 14  2  0
 13 15  1  0
 15 16  1  0
 16 17  1  1
 16 18  1  0
 18 19  1  0
 18 20  1  0
 18 21  1  0
 21 22  2  0
 21 23  1  0
 23 24  1  1
 24 25  1  0
 25 26  2  0
 23 27  1  0
 27 28  1  1
 11 29  1  6
 29 30  2  0
 30 31  1  0
 31 32  2  0
 32 33  1  0
 33 34  1  0
 34 35  1  0
 34 36  2  0
 36 37  1  0
 37 38  2  0
 27  2  1  0
 38 29  1  0
  9  6  1  0
 37 32  1  0
M  END
$$$$
