
     RDKit          3D

 59 68  0  0  0  0  0  0  0  0999 V2000
  187.4279  160.4305  136.8317 C   0  0  2  0  0  0  0  0  0  0  0  0
  186.4109  159.4205  136.9840 N   0  0  0  0  0  0  0  0  0  0  0  0
  186.4914  158.0632  136.4948 C   0  0  0  0  0  0  0  0  0  0  0  0
  185.3301  160.0190  137.7008 C   0  0  0  0  0  0  0  0  0  0  0  0
  184.0190  159.5701  137.9241 C   0  0  0  0  0  0  0  0  0  0  0  0
  183.1389  160.3200  138.6519 C   0  0  0  0  0  0  0  0  0  0  0  0
  181.8439  159.8308  138.8473 O   0  0  0  0  0  0  0  0  0  0  0  0
  181.3539  158.7566  138.1020 C   0  0  0  0  0  0  0  0  0  0  0  0
  183.5517  161.5266  139.1673 C   0  0  0  0  0  0  0  0  0  0  0  0
  184.8133  161.9464  138.9469 C   0  0  0  0  0  0  0  0  0  0  0  0
  185.7567  161.2132  138.2050 C   0  0  0  0  0  0  0  0  0  0  0  0
  187.1696  161.4632  137.8352 C   0  0  1  0  0  0  0  0  0  0  0  0
  188.0023  161.2167  139.0747 C   0  0  0  0  0  0  0  0  0  0  0  0
  188.0211  162.5773  139.6935 C   0  0  0  0  0  0  0  0  0  0  0  0
  187.6150  163.5256  138.7079 N   0  0  0  0  0  0  0  0  0  0  0  0
  188.5415  164.6356  138.6791 C   0  0  0  0  0  0  0  0  0  0  0  0
  189.8182  164.2293  138.0412 C   0  0  0  0  0  0  0  0  0  0  0  0
  189.7640  163.4969  136.9454 C   0  0  0  0  0  0  0  0  0  0  0  0
  188.4377  163.1111  136.3945 C   0  0  1  0  0  0  0  0  0  0  0  0
  188.0484  164.3020  135.4887 C   0  0  0  0  0  0  0  0  0  0  0  0
  189.3267  164.8272  134.8840 C   0  0  0  0  0  0  0  0  0  0  0  0
  188.6576  161.9756  135.4317 C   0  0  0  0  0  0  0  0  0  0  0  0
  187.5623  160.9449  135.4292 C   0  0  1  0  0  0  0  0  0  0  0  0
  188.0059  159.9177  134.5503 O   0  0  0  0  0  0  0  0  0  0  0  0
  187.6364  160.2991  133.2761 C   0  0  0  0  0  0  0  0  0  0  0  0
  188.1637  159.9031  132.1804 O   0  0  0  0  0  0  0  0  0  0  0  0
  186.5499  161.2245  133.3871 N   0  0  0  0  0  0  0  0  0  0  0  0
  185.8436  161.8718  132.3031 C   0  0  0  0  0  0  0  0  0  0  0  0
  184.6376  161.1028  131.8300 C   0  0  0  0  0  0  0  0  0  0  0  0
  184.9709  159.3397  131.8404 Cl  0  0  0  0  0  0  0  0  0  0  0  0
  186.3101  161.3600  134.7994 C   0  0  0  0  0  0  0  0  0  0  0  0
  185.2056  161.7622  135.2427 O   0  0  0  0  0  0  0  0  0  0  0  0
  187.4260  162.8802  137.4438 C   0  0  1  0  0  0  0  0  0  0  0  0
  182.6186  162.2677  140.0052 C   0  0  1  0  0  0  0  0  0  0  0  0
  181.4844  161.5229  140.6019 C   0  0  0  0  0  0  0  0  0  0  0  0
  181.5574  160.5077  141.6047 C   0  0  1  0  0  0  0  0  0  0  0  0
  182.7997  160.0462  142.2497 C   0  0  0  0  0  0  0  0  0  0  0  0
  183.3452  161.1063  143.0267 N   0  0  0  0  0  0  0  0  0  0  0  0
  182.6341  161.2305  144.2333 C   0  0  0  0  0  0  0  0  0  0  0  0
  181.2022  161.5806  143.8886 C   0  0  2  0  0  0  0  0  0  0  0  0
  181.1196  162.9682  143.7666 O   0  0  0  0  0  0  0  0  0  0  0  0
  180.3663  161.2556  145.1423 C   0  0  0  0  0  0  0  0  0  0  0  0
  179.9974  159.7875  145.1618 C   0  0  0  0  0  0  0  0  0  0  0  0
  180.5949  160.8221  142.7766 C   0  0  0  0  0  0  0  0  0  0  0  0
  184.7752  160.9184  143.0893 C   0  0  0  0  0  0  0  0  0  0  0  0
  185.2485  161.7935  141.8747 C   0  0  0  0  0  0  0  0  0  0  0  0
  184.3069  162.9628  141.8071 C   0  0  0  0  0  0  0  0  0  0  0  0
  183.2204  163.1198  141.0642 C   0  0  0  0  0  0  0  0  0  0  0  0
  182.6701  164.3294  141.4187 N   0  0  0  0  0  0  0  0  0  0  0  0
  183.3951  164.9334  142.3668 C   0  0  0  0  0  0  0  0  0  0  0  0
  183.2614  166.1359  143.0339 C   0  0  0  0  0  0  0  0  0  0  0  0
  184.1778  166.5300  143.9936 C   0  0  0  0  0  0  0  0  0  0  0  0
  185.2303  165.6842  144.2642 C   0  0  0  0  0  0  0  0  0  0  0  0
  185.3470  164.4911  143.5899 C   0  0  0  0  0  0  0  0  0  0  0  0
  184.4301  164.0876  142.6238 C   0  0  0  0  0  0  0  0  0  0  0  0
  181.9128  163.1321  138.9477 C   0  0  0  0  0  0  0  0  0  0  0  0
  182.2877  164.3002  138.8250 O   0  0  0  0  0  0  0  0  0  0  0  0
  180.9122  162.6297  138.1754 O   0  0  0  0  0  0  0  0  0  0  0  0
  181.0292  162.4081  136.7724 C   0  0  0  0  0  0  0  0  0  0  0  0
  1  2  1  6
  2  3  1  0
  2  4  1  0
  4  5  2  0
  5  6  1  0
  6  7  1  0
  7  8  1  0
  6  9  2  0
  9 10  1  0
 10 11  2  0
 11 12  1  0
 12 13  1  1
 13 14  1  0
 14 15  1  0
 15 16  1  0
 16 17  1  0
 17 18  2  0
 18 19  1  0
 19 20  1  6
 20 21  1  0
 19 22  1  0
 23 22  1  1
 23 24  1  0
 24 25  1  0
 25 26  2  0
 25 27  1  0
 27 28  1  0
 28 29  1  0
 29 30  1  0
 27 31  1  0
 31 32  2  0
 19 33  1  0
  9 34  1  0
 34 35  1  0
 36 35  1  1
 36 37  1  0
 37 38  1  0
 38 39  1  0
 39 40  1  0
 40 41  1  6
 40 42  1  0
 42 43  1  0
 40 44  1  0
 38 45  1  0
 45 46  1  0
 46 47  1  0
 47 48  2  0
 48 49  1  0
 49 50  1  0
 50 51  2  0
 51 52  1  0
 52 53  2  0
 53 54  1  0
 54 55  2  0
 34 56  1  6
 56 57  2  0
 56 58  1  0
 58 59  1  0
 12  1  1  0
 33 12  1  0
 48 34  1  0
 55 50  1  0
 23  1  1  0
 31 23  1  0
 44 36  1  0
 55 47  1  0
 11  4  1  0
 33 15  1  1
M  END
$$$$
