
     RDKit          3D

 59 68  0  0  0  0  0  0  0  0999 V2000
  127.1845  142.4239  133.4150 C   0  0  2  0  0  0  0  0  0  0  0  0
  126.9797  141.5730  134.5602 N   0  0  0  0  0  0  0  0  0  0  0  0
  125.9726  141.7602  135.5795 C   0  0  0  0  0  0  0  0  0  0  0  0
  127.9521  140.5294  134.4862 C   0  0  0  0  0  0  0  0  0  0  0  0
  128.3452  139.5745  135.4370 C   0  0  0  0  0  0  0  0  0  0  0  0
  129.3129  138.6555  135.1443 C   0  0  0  0  0  0  0  0  0  0  0  0
  129.6705  137.7244  136.1241 O   0  0  0  0  0  0  0  0  0  0  0  0
  128.8529  137.4848  137.2302 C   0  0  0  0  0  0  0  0  0  0  0  0
  129.9023  138.6744  133.9017 C   0  0  0  0  0  0  0  0  0  0  0  0
  129.5156  139.5955  132.9970 C   0  0  0  0  0  0  0  0  0  0  0  0
  128.5257  140.5624  133.2484 C   0  0  0  0  0  0  0  0  0  0  0  0
  127.9457  141.6538  132.4311 C   0  0  1  0  0  0  0  0  0  0  0  0
  127.0138  141.0089  131.4280 C   0  0  0  0  0  0  0  0  0  0  0  0
  127.9387  140.7664  130.2790 C   0  0  0  0  0  0  0  0  0  0  0  0
  129.1106  141.5573  130.4697 N   0  0  0  0  0  0  0  0  0  0  0  0
  129.4234  142.2777  129.2554 C   0  0  0  0  0  0  0  0  0  0  0  0
  128.4675  143.3947  129.0538 C   0  0  0  0  0  0  0  0  0  0  0  0
  128.1447  144.1367  130.0956 C   0  0  0  0  0  0  0  0  0  0  0  0
  128.7469  143.8300  131.4203 C   0  0  1  0  0  0  0  0  0  0  0  0
  130.0816  144.6101  131.4139 C   0  0  0  0  0  0  0  0  0  0  0  0
  130.1799  145.2970  130.0744 C   0  0  0  0  0  0  0  0  0  0  0  0
  127.9211  144.5264  132.4680 C   0  0  0  0  0  0  0  0  0  0  0  0
  127.7771  143.7595  133.7538 C   0  0  1  0  0  0  0  0  0  0  0  0
  126.8849  144.5235  134.5568 O   0  0  0  0  0  0  0  0  0  0  0  0
  127.6509  145.4643  135.2152 C   0  0  0  0  0  0  0  0  0  0  0  0
  127.2411  146.5738  135.7015 O   0  0  0  0  0  0  0  0  0  0  0  0
  128.9988  144.9847  135.2637 N   0  0  0  0  0  0  0  0  0  0  0  0
  130.1360  145.6433  135.8686 C   0  0  0  0  0  0  0  0  0  0  0  0
  130.5686  146.8861  135.1353 C   0  0  0  0  0  0  0  0  0  0  0  0
  129.3116  148.1605  135.2593 Cl  0  0  0  0  0  0  0  0  0  0  0  0
  128.9723  143.7113  134.5941 C   0  0  0  0  0  0  0  0  0  0  0  0
  129.8598  142.8450  134.7944 O   0  0  0  0  0  0  0  0  0  0  0  0
  128.9690  142.3860  131.6288 C   0  0  1  0  0  0  0  0  0  0  0  0
  130.8734  137.6344  133.5894 C   0  0  1  0  0  0  0  0  0  0  0  0
  130.5126  136.2332  133.9110 C   0  0  0  0  0  0  0  0  0  0  0  0
  129.4921  135.4466  133.2934 C   0  0  1  0  0  0  0  0  0  0  0  0
  128.6315  135.8996  132.1858 C   0  0  0  0  0  0  0  0  0  0  0  0
  129.4301  136.1017  131.0254 N   0  0  0  0  0  0  0  0  0  0  0  0
  129.7327  134.8641  130.4309 C   0  0  0  0  0  0  0  0  0  0  0  0
  130.5379  134.0597  131.4290 C   0  0  2  0  0  0  0  0  0  0  0  0
  131.8816  134.3989  131.2656 O   0  0  0  0  0  0  0  0  0  0  0  0
  130.4540  132.5919  130.9659 C   0  0  0  0  0  0  0  0  0  0  0  0
  129.0118  132.1330  130.9327 C   0  0  0  0  0  0  0  0  0  0  0  0
  130.0568  134.0829  132.8250 C   0  0  0  0  0  0  0  0  0  0  0  0
  128.7891  137.1124  130.2180 C   0  0  0  0  0  0  0  0  0  0  0  0
  129.5089  138.4102  130.7306 C   0  0  0  0  0  0  0  0  0  0  0  0
  130.9208  138.0086  131.0521 C   0  0  0  0  0  0  0  0  0  0  0  0
  131.4467  137.6612  132.2181 C   0  0  0  0  0  0  0  0  0  0  0  0
  132.7553  137.3149  131.9746 N   0  0  0  0  0  0  0  0  0  0  0  0
  133.0583  137.4434  130.6781 C   0  0  0  0  0  0  0  0  0  0  0  0
  134.2145  137.2263  129.9535 C   0  0  0  0  0  0  0  0  0  0  0  0
  134.2569  137.4444  128.5872 C   0  0  0  0  0  0  0  0  0  0  0  0
  133.1077  137.8858  127.9700 C   0  0  0  0  0  0  0  0  0  0  0  0
  131.9661  138.0964  128.7077 C   0  0  0  0  0  0  0  0  0  0  0  0
  131.9153  137.8796  130.0815 C   0  0  0  0  0  0  0  0  0  0  0  0
  131.9572  137.9345  134.6377 C   0  0  0  0  0  0  0  0  0  0  0  0
  132.2912  139.1115  134.7900 O   0  0  0  0  0  0  0  0  0  0  0  0
  132.5278  136.9408  135.3707 O   0  0  0  0  0  0  0  0  0  0  0  0
  132.1388  136.6152  136.7026 C   0  0  0  0  0  0  0  0  0  0  0  0
  1  2  1  1
  2  3  1  0
  2  4  1  0
  4  5  2  0
  5  6  1  0
  6  7  1  0
  7  8  1  0
  6  9  2  0
  9 10  1  0
 10 11  2  0
 11 12  1  0
 12 13  1  6
 13 14  1  0
 14 15  1  0
 15 16  1  0
 16 17  1  0
 17 18  2  0
 18 19  1  0
 19 20  1  6
 20 21  1  0
 19 22  1  0
 23 22  1  6
 23 24  1  0
 24 25  1  0
 25 26  2  0
 25 27  1  0
 27 28  1  0
 28 29  1  0
 29 30  1  0
 27 31  1  0
 31 32  2  0
 19 33  1  0
  9 34  1  0
 34 35  1  0
 36 35  1  6
 36 37  1  0
 37 38  1  0
 38 39  1  0
 39 40  1  0
 40 41  1  1
 40 42  1  0
 42 43  1  0
 40 44  1  0
 38 45  1  0
 45 46  1  0
 46 47  1  0
 47 48  2  0
 48 49  1  0
 49 50  1  0
 50 51  2  0
 51 52  1  0
 52 53  2  0
 53 54  1  0
 54 55  2  0
 34 56  1  1
 56 57  2  0
 56 58  1  0
 58 59  1  0
 12  1  1  0
 33 12  1  0
 48 34  1  0
 55 50  1  0
 23  1  1  0
 31 23  1  0
 44 36  1  0
 55 47  1  0
 11  4  1  0
 33 15  1  6
M  END
$$$$
