
     RDKit          3D

 59 68  0  0  0  0  0  0  0  0999 V2000
  124.4965  158.5967  148.5072 C   0  0  2  0  0  0  0  0  0  0  0  0
  124.8422  159.9629  148.8095 N   0  0  0  0  0  0  0  0  0  0  0  0
  124.0392  161.1236  148.4995 C   0  0  0  0  0  0  0  0  0  0  0  0
  126.1119  159.9391  149.4633 C   0  0  0  0  0  0  0  0  0  0  0  0
  127.0048  160.9783  149.7687 C   0  0  0  0  0  0  0  0  0  0  0  0
  128.1833  160.7201  150.4098 C   0  0  0  0  0  0  0  0  0  0  0  0
  129.0400  161.7883  150.6924 O   0  0  0  0  0  0  0  0  0  0  0  0
  128.6390  162.8415  151.5166 C   0  0  0  0  0  0  0  0  0  0  0  0
  128.4891  159.4245  150.7556 C   0  0  0  0  0  0  0  0  0  0  0  0
  127.6233  158.4355  150.4579 C   0  0  0  0  0  0  0  0  0  0  0  0
  126.3989  158.6479  149.7995 C   0  0  0  0  0  0  0  0  0  0  0  0
  125.3079  157.7407  149.3727 C   0  0  1  0  0  0  0  0  0  0  0  0
  124.5346  157.3616  150.6173 C   0  0  0  0  0  0  0  0  0  0  0  0
  125.2616  156.1304  151.0533 C   0  0  0  0  0  0  0  0  0  0  0  0
  126.0517  155.6636  149.9609 N   0  0  0  0  0  0  0  0  0  0  0  0
  125.8417  154.2456  149.7699 C   0  0  0  0  0  0  0  0  0  0  0  0
  124.5097  153.9952  149.1654 C   0  0  0  0  0  0  0  0  0  0  0  0
  124.1164  154.7732  148.1755 C   0  0  0  0  0  0  0  0  0  0  0  0
  125.0150  155.8608  147.7055 C   0  0  1  0  0  0  0  0  0  0  0  0
  125.9217  155.1712  146.6602 C   0  0  0  0  0  0  0  0  0  0  0  0
  125.3339  153.8055  146.4052 C   0  0  0  0  0  0  0  0  0  0  0  0
  124.1847  156.8187  146.8945 C   0  0  0  0  0  0  0  0  0  0  0  0
  124.5783  158.2623  147.0474 C   0  0  1  0  0  0  0  0  0  0  0  0
  123.6184  159.0014  146.3011 O   0  0  0  0  0  0  0  0  0  0  0  0
  124.0662  159.0279  144.9957 C   0  0  0  0  0  0  0  0  0  0  0  0
  123.3537  159.2174  143.9507 O   0  0  0  0  0  0  0  0  0  0  0  0
  125.4802  158.8048  145.0064 N   0  0  0  0  0  0  0  0  0  0  0  0
  126.3634  158.7610  143.8615 C   0  0  0  0  0  0  0  0  0  0  0  0
  126.1890  157.5255  143.0173 C   0  0  0  0  0  0  0  0  0  0  0  0
  126.4975  156.0494  143.9896 Cl  0  0  0  0  0  0  0  0  0  0  0  0
  125.8282  158.6457  146.3935 C   0  0  0  0  0  0  0  0  0  0  0  0
  127.0014  158.8327  146.8022 O   0  0  0  0  0  0  0  0  0  0  0  0
  125.8098  156.4594  148.7954 C   0  0  1  0  0  0  0  0  0  0  0  0
  129.7140  159.1883  151.5081 C   0  0  1  0  0  0  0  0  0  0  0  0
  130.9216  159.9555  151.1205 C   0  0  0  0  0  0  0  0  0  0  0  0
  131.1247  161.3631  151.2582 C   0  0  1  0  0  0  0  0  0  0  0  0
  130.1559  162.3014  151.8527 C   0  0  0  0  0  0  0  0  0  0  0  0
  130.0061  162.0049  153.2364 N   0  0  0  0  0  0  0  0  0  0  0  0
  131.1038  162.5094  153.9557 C   0  0  0  0  0  0  0  0  0  0  0  0
  132.3461  161.8073  153.4500 C   0  0  2  0  0  0  0  0  0  0  0  0
  132.4920  160.6235  154.1741 O   0  0  0  0  0  0  0  0  0  0  0  0
  133.5405  162.6762  153.8909 C   0  0  0  0  0  0  0  0  0  0  0  0
  133.4664  164.0408  153.2398 C   0  0  0  0  0  0  0  0  0  0  0  0
  132.4599  161.6575  151.9853 C   0  0  0  0  0  0  0  0  0  0  0  0
  128.6794  162.4116  153.6348 C   0  0  0  0  0  0  0  0  0  0  0  0
  127.8811  161.0742  153.4369 C   0  0  0  0  0  0  0  0  0  0  0  0
  128.8296  159.9628  153.7881 C   0  0  0  0  0  0  0  0  0  0  0  0
  129.5940  159.2318  152.9891 C   0  0  0  0  0  0  0  0  0  0  0  0
  130.3294  158.3982  153.7989 N   0  0  0  0  0  0  0  0  0  0  0  0
  130.0357  158.5918  155.0895 C   0  0  0  0  0  0  0  0  0  0  0  0
  130.4920  158.0127  156.2580 C   0  0  0  0  0  0  0  0  0  0  0  0
  130.0070  158.4089  157.4924 C   0  0  0  0  0  0  0  0  0  0  0  0
  129.0525  159.4011  157.5205 C   0  0  0  0  0  0  0  0  0  0  0  0
  128.6102  159.9660  156.3470 C   0  0  0  0  0  0  0  0  0  0  0  0
  129.0928  159.5733  155.1020 C   0  0  0  0  0  0  0  0  0  0  0  0
  130.0696  157.7700  151.0330 C   0  0  0  0  0  0  0  0  0  0  0  0
  131.1825  157.6006  150.5302 O   0  0  0  0  0  0  0  0  0  0  0  0
  129.1913  156.7392  151.1611 O   0  0  0  0  0  0  0  0  0  0  0  0
  129.4529  155.4142  150.7061 C   0  0  0  0  0  0  0  0  0  0  0  0
  1  2  1  6
  2  3  1  0
  2  4  1  0
  4  5  2  0
  5  6  1  0
  6  7  1  0
  7  8  1  0
  6  9  2  0
  9 10  1  0
 10 11  2  0
 11 12  1  0
 12 13  1  1
 13 14  1  0
 14 15  1  0
 15 16  1  0
 16 17  1  0
 17 18  2  0
 18 19  1  0
 19 20  1  6
 20 21  1  0
 19 22  1  0
 23 22  1  1
 23 24  1  0
 24 25  1  0
 25 26  2  0
 25 27  1  0
 27 28  1  0
 28 29  1  0
 29 30  1  0
 27 31  1  0
 31 32  2  0
 19 33  1  0
  9 34  1  0
 34 35  1  0
 36 35  1  1
 36 37  1  0
 37 38  1  0
 38 39  1  0
 39 40  1  0
 40 41  1  1
 40 42  1  0
 42 43  1  0
 40 44  1  0
 38 45  1  0
 45 46  1  0
 46 47  1  0
 47 48  2  0
 48 49  1  0
 49 50  1  0
 50 51  2  0
 51 52  1  0
 52 53  2  0
 53 54  1  0
 54 55  2  0
 34 56  1  1
 56 57  2  0
 56 58  1  0
 58 59  1  0
 12  1  1  0
 33 12  1  0
 48 34  1  0
 55 50  1  0
 23  1  1  0
 31 23  1  0
 44 36  1  0
 55 47  1  0
 11  4  1  0
 33 15  1  1
M  END
$$$$
