
     RDKit          3D

 59 68  0  0  0  0  0  0  0  0999 V2000
  117.6453  169.0621  141.0187 C   0  0  2  0  0  0  0  0  0  0  0  0
  118.7083  169.7613  141.6960 N   0  0  0  0  0  0  0  0  0  0  0  0
  119.1994  171.0779  141.3590 C   0  0  0  0  0  0  0  0  0  0  0  0
  119.1688  168.9087  142.7453 C   0  0  0  0  0  0  0  0  0  0  0  0
  120.3112  168.9899  143.5569 C   0  0  0  0  0  0  0  0  0  0  0  0
  120.5559  168.0463  144.5142 C   0  0  0  0  0  0  0  0  0  0  0  0
  121.7070  168.1700  145.2978 O   0  0  0  0  0  0  0  0  0  0  0  0
  122.4057  169.3764  145.3755 C   0  0  0  0  0  0  0  0  0  0  0  0
  119.6670  167.0093  144.6766 C   0  0  0  0  0  0  0  0  0  0  0  0
  118.5733  166.9427  143.8919 C   0  0  0  0  0  0  0  0  0  0  0  0
  118.2762  167.8871  142.8930 C   0  0  0  0  0  0  0  0  0  0  0  0
  117.1615  168.0215  141.9261 C   0  0  1  0  0  0  0  0  0  0  0  0
  115.9587  168.5132  142.7020 C   0  0  0  0  0  0  0  0  0  0  0  0
  115.3240  167.2235  143.1119 C   0  0  0  0  0  0  0  0  0  0  0  0
  115.8696  166.1781  142.3089 N   0  0  0  0  0  0  0  0  0  0  0  0
  114.8045  165.3608  141.7714 C   0  0  0  0  0  0  0  0  0  0  0  0
  114.0918  166.0836  140.6888 C   0  0  0  0  0  0  0  0  0  0  0  0
  114.8092  166.7483  139.8037 C   0  0  0  0  0  0  0  0  0  0  0  0
  116.2916  166.7468  139.9216 C   0  0  1  0  0  0  0  0  0  0  0  0
  116.7261  165.4744  139.1585 C   0  0  0  0  0  0  0  0  0  0  0  0
  115.9024  164.3347  139.7045 C   0  0  0  0  0  0  0  0  0  0  0  0
  116.8165  167.8768  139.0777 C   0  0  0  0  0  0  0  0  0  0  0  0
  118.0207  168.5712  139.6521 C   0  0  1  0  0  0  0  0  0  0  0  0
  118.2885  169.6598  138.7758 O   0  0  0  0  0  0  0  0  0  0  0  0
  119.0741  169.1631  137.7551 C   0  0  0  0  0  0  0  0  0  0  0  0
  119.2061  169.6620  136.5851 O   0  0  0  0  0  0  0  0  0  0  0  0
  119.7251  167.9803  138.2311 N   0  0  0  0  0  0  0  0  0  0  0  0
  120.6488  167.1408  137.4997 C   0  0  0  0  0  0  0  0  0  0  0  0
  121.0909  167.7368  136.1888 C   0  0  0  0  0  0  0  0  0  0  0  0
  122.4273  166.7736  135.4775 Cl  0  0  0  0  0  0  0  0  0  0  0  0
  119.2715  167.8175  139.5869 C   0  0  0  0  0  0  0  0  0  0  0  0
  119.9232  167.1409  140.4210 O   0  0  0  0  0  0  0  0  0  0  0  0
  116.7555  166.7186  141.3223 C   0  0  1  0  0  0  0  0  0  0  0  0
  119.9108  166.0622  145.7564 C   0  0  1  0  0  0  0  0  0  0  0  0
  120.7701  166.5029  146.8809 C   0  0  0  0  0  0  0  0  0  0  0  0
  120.4666  167.5084  147.8497 C   0  0  1  0  0  0  0  0  0  0  0  0
  119.2050  168.2681  147.9109 C   0  0  0  0  0  0  0  0  0  0  0  0
  118.1398  167.3809  148.2325 N   0  0  0  0  0  0  0  0  0  0  0  0
  118.1591  167.0882  149.6075 C   0  0  0  0  0  0  0  0  0  0  0  0
  119.4679  166.3904  149.9102 C   0  0  2  0  0  0  0  0  0  0  0  0
  119.2865  165.0255  149.6833 O   0  0  0  0  0  0  0  0  0  0  0  0
  119.6722  166.5018  151.4340 C   0  0  0  0  0  0  0  0  0  0  0  0
  120.1565  167.8888  151.7992 C   0  0  0  0  0  0  0  0  0  0  0  0
  120.6749  166.9687  149.2861 C   0  0  0  0  0  0  0  0  0  0  0  0
  116.9279  167.9201  147.6626 C   0  0  0  0  0  0  0  0  0  0  0  0
  116.8934  167.1856  146.2753 C   0  0  0  0  0  0  0  0  0  0  0  0
  117.4708  165.8181  146.5093 C   0  0  0  0  0  0  0  0  0  0  0  0
  118.7123  165.3918  146.3254 C   0  0  0  0  0  0  0  0  0  0  0  0
  118.7490  164.0846  146.7515 N   0  0  0  0  0  0  0  0  0  0  0  0
  117.5520  163.6846  147.1948 C   0  0  0  0  0  0  0  0  0  0  0  0
  117.0879  162.4896  147.7100 C   0  0  0  0  0  0  0  0  0  0  0  0
  115.7683  162.3407  148.1006 C   0  0  0  0  0  0  0  0  0  0  0  0
  114.9293  163.4235  147.9596 C   0  0  0  0  0  0  0  0  0  0  0  0
  115.4091  164.6052  147.4447 C   0  0  0  0  0  0  0  0  0  0  0  0
  116.7343  164.7631  147.0497 C   0  0  0  0  0  0  0  0  0  0  0  0
  120.8153  165.0446  145.0422 C   0  0  0  0  0  0  0  0  0  0  0  0
  120.4262  164.5980  143.9609 O   0  0  0  0  0  0  0  0  0  0  0  0
  122.0004  164.6501  145.5808 O   0  0  0  0  0  0  0  0  0  0  0  0
  122.2306  163.3533  146.1255 C   0  0  0  0  0  0  0  0  0  0  0  0
  1  2  1  1
  2  3  1  0
  2  4  1  0
  4  5  2  0
  5  6  1  0
  6  7  1  0
  7  8  1  0
  6  9  2  0
  9 10  1  0
 10 11  2  0
 11 12  1  0
 12 13  1  1
 13 14  1  0
 14 15  1  0
 15 16  1  0
 16 17  1  0
 17 18  2  0
 18 19  1  0
 19 20  1  6
 20 21  1  0
 19 22  1  0
 23 22  1  6
 23 24  1  0
 24 25  1  0
 25 26  2  0
 25 27  1  0
 27 28  1  0
 28 29  1  0
 29 30  1  0
 27 31  1  0
 31 32  2  0
 19 33  1  0
  9 34  1  0
 34 35  1  0
 36 35  1  6
 36 37  1  0
 37 38  1  0
 38 39  1  0
 39 40  1  0
 40 41  1  1
 40 42  1  0
 42 43  1  0
 40 44  1  0
 38 45  1  0
 45 46  1  0
 46 47  1  0
 47 48  2  0
 48 49  1  0
 49 50  1  0
 50 51  2  0
 51 52  1  0
 52 53  2  0
 53 54  1  0
 54 55  2  0
 34 56  1  6
 56 57  2  0
 56 58  1  0
 58 59  1  0
 12  1  1  0
 33 12  1  0
 48 34  1  0
 55 50  1  0
 23  1  1  0
 31 23  1  0
 44 36  1  0
 55 47  1  0
 11  4  1  0
 33 15  1  1
M  END
$$$$
