
     RDKit          3D

 59 68  0  0  0  0  0  0  0  0999 V2000
  163.0417  148.5734  126.6197 C   0  0  2  0  0  0  0  0  0  0  0  0
  163.2330  147.3966  125.8097 N   0  0  0  0  0  0  0  0  0  0  0  0
  162.1888  146.6565  125.1389 C   0  0  0  0  0  0  0  0  0  0  0  0
  164.6334  147.1152  125.8037 C   0  0  0  0  0  0  0  0  0  0  0  0
  165.3382  145.9817  125.3691 C   0  0  0  0  0  0  0  0  0  0  0  0
  166.7004  145.9294  125.4600 C   0  0  0  0  0  0  0  0  0  0  0  0
  167.3578  144.7790  125.0139 O   0  0  0  0  0  0  0  0  0  0  0  0
  166.6461  143.6613  124.5736 C   0  0  0  0  0  0  0  0  0  0  0  0
  167.3795  147.0043  125.9846 C   0  0  0  0  0  0  0  0  0  0  0  0
  166.6917  148.0873  126.3977 C   0  0  0  0  0  0  0  0  0  0  0  0
  165.2910  148.1908  126.3264 C   0  0  0  0  0  0  0  0  0  0  0  0
  164.3333  149.2543  126.7102 C   0  0  1  0  0  0  0  0  0  0  0  0
  164.4336  150.3405  125.6610 C   0  0  0  0  0  0  0  0  0  0  0  0
  165.4958  151.2164  126.2431 C   0  0  0  0  0  0  0  0  0  0  0  0
  165.6489  150.8828  127.6217 N   0  0  0  0  0  0  0  0  0  0  0  0
  165.6385  152.0852  128.4250 C   0  0  0  0  0  0  0  0  0  0  0  0
  164.2646  152.6392  128.5121 C   0  0  0  0  0  0  0  0  0  0  0  0
  163.2652  151.8027  128.7161 C   0  0  0  0  0  0  0  0  0  0  0  0
  163.5506  150.3496  128.8519 C   0  0  1  0  0  0  0  0  0  0  0  0
  163.8665  150.1695  130.3545 C   0  0  0  0  0  0  0  0  0  0  0  0
  163.2095  151.3174  131.0798 C   0  0  0  0  0  0  0  0  0  0  0  0
  162.2535  149.6112  128.6596 C   0  0  0  0  0  0  0  0  0  0  0  0
  162.3899  148.2965  127.9419 C   0  0  1  0  0  0  0  0  0  0  0  0
  161.0616  147.8181  127.7646 O   0  0  0  0  0  0  0  0  0  0  0  0
  160.7265  147.1412  128.9200 C   0  0  0  0  0  0  0  0  0  0  0  0
  159.5447  146.9102  129.3508 O   0  0  0  0  0  0  0  0  0  0  0  0
  161.9386  146.7355  129.5645 N   0  0  0  0  0  0  0  0  0  0  0  0
  162.0612  145.9912  130.7990 C   0  0  0  0  0  0  0  0  0  0  0  0
  162.3231  146.8620  132.0001 C   0  0  0  0  0  0  0  0  0  0  0  0
  163.8888  147.7209  131.8261 Cl  0  0  0  0  0  0  0  0  0  0  0  0
  162.9977  147.2169  128.7177 C   0  0  0  0  0  0  0  0  0  0  0  0
  164.1478  146.7127  128.7532 O   0  0  0  0  0  0  0  0  0  0  0  0
  164.6769  149.9050  128.0084 C   0  0  1  0  0  0  0  0  0  0  0  0
  168.8353  146.9541  125.9965 C   0  0  1  0  0  0  0  0  0  0  0  0
  169.4816  145.8204  126.6995 C   0  0  0  0  0  0  0  0  0  0  0  0
  169.4508  144.4440  126.3174 C   0  0  1  0  0  0  0  0  0  0  0  0
  168.7824  143.9169  125.1141 C   0  0  0  0  0  0  0  0  0  0  0  0
  169.4462  144.4105  123.9561 N   0  0  0  0  0  0  0  0  0  0  0  0
  170.6366  143.6929  123.7442 C   0  0  0  0  0  0  0  0  0  0  0  0
  171.5325  143.9255  124.9421 C   0  0  2  0  0  0  0  0  0  0  0  0
  172.2637  145.0908  124.7085 O   0  0  0  0  0  0  0  0  0  0  0  0
  172.5857  142.8002  124.9163 C   0  0  0  0  0  0  0  0  0  0  0  0
  171.9301  141.4609  125.1772 C   0  0  0  0  0  0  0  0  0  0  0  0
  170.8823  143.8553  126.2662 C   0  0  0  0  0  0  0  0  0  0  0  0
  168.4807  144.4697  122.8844 C   0  0  0  0  0  0  0  0  0  0  0  0
  167.9739  145.9500  123.0156 C   0  0  0  0  0  0  0  0  0  0  0  0
  169.1581  146.7619  123.4590 C   0  0  0  0  0  0  0  0  0  0  0  0
  169.5096  147.1287  124.6833 C   0  0  0  0  0  0  0  0  0  0  0  0
  170.7061  147.7969  124.5680 N   0  0  0  0  0  0  0  0  0  0  0  0
  171.1072  147.8582  123.2934 C   0  0  0  0  0  0  0  0  0  0  0  0
  172.2131  148.4123  122.6780 C   0  0  0  0  0  0  0  0  0  0  0  0
  172.3872  148.3320  121.3071 C   0  0  0  0  0  0  0  0  0  0  0  0
  171.4212  147.6808  120.5728 C   0  0  0  0  0  0  0  0  0  0  0  0
  170.3270  147.1354  121.2028 C   0  0  0  0  0  0  0  0  0  0  0  0
  170.1446  147.2118  122.5804 C   0  0  0  0  0  0  0  0  0  0  0  0
  169.1522  148.1328  126.9313 C   0  0  0  0  0  0  0  0  0  0  0  0
  168.7820  148.0446  128.1039 O   0  0  0  0  0  0  0  0  0  0  0  0
  169.8156  149.2328  126.4839 O   0  0  0  0  0  0  0  0  0  0  0  0
  169.4227  150.5703  126.7805 C   0  0  0  0  0  0  0  0  0  0  0  0
  1  2  1  1
  2  3  1  0
  2  4  1  0
  4  5  2  0
  5  6  1  0
  6  7  1  0
  7  8  1  0
  6  9  2  0
  9 10  1  0
 10 11  2  0
 11 12  1  0
 12 13  1  6
 13 14  1  0
 14 15  1  0
 15 16  1  0
 16 17  1  0
 17 18  2  0
 18 19  1  0
 19 20  1  1
 20 21  1  0
 19 22  1  0
 23 22  1  1
 23 24  1  0
 24 25  1  0
 25 26  2  0
 25 27  1  0
 27 28  1  0
 28 29  1  0
 29 30  1  0
 27 31  1  0
 31 32  2  0
 19 33  1  0
  9 34  1  0
 34 35  1  0
 36 35  1  6
 36 37  1  0
 37 38  1  0
 38 39  1  0
 39 40  1  0
 40 41  1  6
 40 42  1  0
 42 43  1  0
 40 44  1  0
 38 45  1  0
 45 46  1  0
 46 47  1  0
 47 48  2  0
 48 49  1  0
 49 50  1  0
 50 51  2  0
 51 52  1  0
 52 53  2  0
 53 54  1  0
 54 55  2  0
 34 56  1  1
 56 57  2  0
 56 58  1  0
 58 59  1  0
 12  1  1  0
 33 12  1  0
 48 34  1  0
 55 50  1  0
 23  1  1  0
 31 23  1  0
 44 36  1  0
 55 47  1  0
 11  4  1  0
 33 15  1  6
M  END
$$$$
