
     RDKit          3D

 59 68  0  0  0  0  0  0  0  0999 V2000
  206.3737  134.4337  132.7952 C   0  0  2  0  0  0  0  0  0  0  0  0
  205.7825  133.5827  131.7934 N   0  0  0  0  0  0  0  0  0  0  0  0
  205.9190  133.7437  130.3638 C   0  0  0  0  0  0  0  0  0  0  0  0
  205.0498  132.5694  132.4836 C   0  0  0  0  0  0  0  0  0  0  0  0
  204.1169  131.6319  132.0130 C   0  0  0  0  0  0  0  0  0  0  0  0
  203.5299  130.7419  132.8674 C   0  0  0  0  0  0  0  0  0  0  0  0
  202.6069  129.8273  132.3515 O   0  0  0  0  0  0  0  0  0  0  0  0
  202.0827  129.9726  131.0656 C   0  0  0  0  0  0  0  0  0  0  0  0
  203.8634  130.7728  134.2014 C   0  0  0  0  0  0  0  0  0  0  0  0
  204.7611  131.6768  134.6411 C   0  0  0  0  0  0  0  0  0  0  0  0
  205.3926  132.6138  133.8038 C   0  0  0  0  0  0  0  0  0  0  0  0
  206.3888  133.6826  134.0505 C   0  0  1  0  0  0  0  0  0  0  0  0
  207.7276  133.0040  134.2452 C   0  0  0  0  0  0  0  0  0  0  0  0
  207.7353  132.7844  135.7238 C   0  0  0  0  0  0  0  0  0  0  0  0
  206.7305  133.6123  136.3071 N   0  0  0  0  0  0  0  0  0  0  0  0
  207.2787  134.3359  137.4328 C   0  0  0  0  0  0  0  0  0  0  0  0
  208.1754  135.4217  136.9648 C   0  0  0  0  0  0  0  0  0  0  0  0
  207.7841  136.1585  135.9431 C   0  0  0  0  0  0  0  0  0  0  0  0
  206.4702  135.8774  135.3058 C   0  0  1  0  0  0  0  0  0  0  0  0
  205.4644  136.6985  136.1449 C   0  0  0  0  0  0  0  0  0  0  0  0
  205.6711  136.3024  137.5856 C   0  0  0  0  0  0  0  0  0  0  0  0
  206.4626  136.5531  133.9612 C   0  0  0  0  0  0  0  0  0  0  0  0
  205.7374  135.7887  132.8880 C   0  0  1  0  0  0  0  0  0  0  0  0
  205.9380  136.5287  131.6894 O   0  0  0  0  0  0  0  0  0  0  0  0
  204.9542  137.4962  131.6514 C   0  0  0  0  0  0  0  0  0  0  0  0
  204.9925  138.5949  130.9981 O   0  0  0  0  0  0  0  0  0  0  0  0
  203.8690  137.0588  132.4762 N   0  0  0  0  0  0  0  0  0  0  0  0
  202.6246  137.7554  132.7194 C   0  0  0  0  0  0  0  0  0  0  0  0
  202.6874  138.7039  133.8881 C   0  0  0  0  0  0  0  0  0  0  0  0
  204.3642  138.8194  134.5164 Cl  0  0  0  0  0  0  0  0  0  0  0  0
  204.2796  135.7819  132.9971 C   0  0  0  0  0  0  0  0  0  0  0  0
  203.4433  134.9446  133.4187 O   0  0  0  0  0  0  0  0  0  0  0  0
  206.1271  134.4420  135.3081 C   0  0  1  0  0  0  0  0  0  0  0  0
  203.2829  129.7619  135.0751 C   0  0  1  0  0  0  0  0  0  0  0  0
  201.8086  129.7445  135.2272 C   0  0  0  0  0  0  0  0  0  0  0  0
  200.8465  129.4110  134.2249 C   0  0  1  0  0  0  0  0  0  0  0  0
  201.1712  128.9875  132.8509 C   0  0  0  0  0  0  0  0  0  0  0  0
  201.8312  127.7275  132.8934 N   0  0  0  0  0  0  0  0  0  0  0  0
  200.8927  126.7024  133.1057 C   0  0  0  0  0  0  0  0  0  0  0  0
  200.2435  126.9455  134.4516 C   0  0  2  0  0  0  0  0  0  0  0  0
  201.0379  126.3380  135.4247 O   0  0  0  0  0  0  0  0  0  0  0  0
  198.9389  126.1246  134.4543 C   0  0  0  0  0  0  0  0  0  0  0  0
  198.0320  126.5753  133.3290 C   0  0  0  0  0  0  0  0  0  0  0  0
  199.8572  128.3400  134.7469 C   0  0  0  0  0  0  0  0  0  0  0  0
  202.6929  127.6404  131.7383 C   0  0  0  0  0  0  0  0  0  0  0  0
  204.0453  128.1764  132.3290 C   0  0  0  0  0  0  0  0  0  0  0  0
  204.0919  127.7146  133.7583 C   0  0  0  0  0  0  0  0  0  0  0  0
  203.7420  128.3646  134.8591 C   0  0  0  0  0  0  0  0  0  0  0  0
  203.9046  127.4870  135.9055 N   0  0  0  0  0  0  0  0  0  0  0  0
  204.3538  126.3013  135.4794 C   0  0  0  0  0  0  0  0  0  0  0  0
  204.6694  125.1232  136.1287 C   0  0  0  0  0  0  0  0  0  0  0  0
  205.1260  124.0188  135.4303 C   0  0  0  0  0  0  0  0  0  0  0  0
  205.2566  124.1303  134.0639 C   0  0  0  0  0  0  0  0  0  0  0  0
  204.9376  125.3111  133.4348 C   0  0  0  0  0  0  0  0  0  0  0  0
  204.4779  126.4259  134.1297 C   0  0  0  0  0  0  0  0  0  0  0  0
  203.7404  130.2781  136.4491 C   0  0  0  0  0  0  0  0  0  0  0  0
  204.4934  131.2541  136.4685 O   0  0  0  0  0  0  0  0  0  0  0  0
  203.3313  129.6823  137.6015 O   0  0  0  0  0  0  0  0  0  0  0  0
  203.7093  130.1280  138.9014 C   0  0  0  0  0  0  0  0  0  0  0  0
  1  2  1  6
  2  3  1  0
  2  4  1  0
  4  5  2  0
  5  6  1  0
  6  7  1  0
  7  8  1  0
  6  9  2  0
  9 10  1  0
 10 11  2  0
 11 12  1  0
 12 13  1  1
 13 14  1  0
 14 15  1  0
 15 16  1  0
 16 17  1  0
 17 18  2  0
 18 19  1  0
 19 20  1  1
 20 21  1  0
 19 22  1  0
 23 22  1  1
 23 24  1  0
 24 25  1  0
 25 26  2  0
 25 27  1  0
 27 28  1  0
 28 29  1  0
 29 30  1  0
 27 31  1  0
 31 32  2  0
 19 33  1  0
  9 34  1  0
 34 35  1  0
 36 35  1  1
 36 37  1  0
 37 38  1  0
 38 39  1  0
 39 40  1  0
 40 41  1  1
 40 42  1  0
 42 43  1  0
 40 44  1  0
 38 45  1  0
 45 46  1  0
 46 47  1  0
 47 48  2  0
 48 49  1  0
 49 50  1  0
 50 51  2  0
 51 52  1  0
 52 53  2  0
 53 54  1  0
 54 55  2  0
 34 56  1  1
 56 57  2  0
 56 58  1  0
 58 59  1  0
 12  1  1  0
 33 12  1  0
 48 34  1  0
 55 50  1  0
 23  1  1  0
 31 23  1  0
 44 36  1  0
 55 47  1  0
 11  4  1  0
 33 15  1  1
M  END
$$$$
