
     RDKit          3D

 59 68  0  0  0  0  0  0  0  0999 V2000
  185.0796  176.8070  141.7006 C   0  0  2  0  0  0  0  0  0  0  0  0
  184.6013  177.9100  142.4957 N   0  0  0  0  0  0  0  0  0  0  0  0
  184.7127  178.0240  143.9319 C   0  0  0  0  0  0  0  0  0  0  0  0
  184.0074  178.8479  141.5969 C   0  0  0  0  0  0  0  0  0  0  0  0
  183.2027  179.9710  141.8448 C   0  0  0  0  0  0  0  0  0  0  0  0
  182.7377  180.7378  140.8141 C   0  0  0  0  0  0  0  0  0  0  0  0
  181.9396  181.8466  141.1112 O   0  0  0  0  0  0  0  0  0  0  0  0
  181.8868  182.3777  142.4014 C   0  0  0  0  0  0  0  0  0  0  0  0
  183.0672  180.3972  139.5229 C   0  0  0  0  0  0  0  0  0  0  0  0
  183.8413  179.3172  139.2977 C   0  0  0  0  0  0  0  0  0  0  0  0
  184.3445  178.4957  140.3223 C   0  0  0  0  0  0  0  0  0  0  0  0
  185.1945  177.2820  140.3217 C   0  0  1  0  0  0  0  0  0  0  0  0
  186.6102  177.7328  140.0334 C   0  0  0  0  0  0  0  0  0  0  0  0
  186.6495  177.6476  138.5416 C   0  0  0  0  0  0  0  0  0  0  0  0
  185.5472  176.8530  138.1069 N   0  0  0  0  0  0  0  0  0  0  0  0
  185.9996  175.8544  137.1638 C   0  0  0  0  0  0  0  0  0  0  0  0
  186.7473  174.7805  137.8639 C   0  0  0  0  0  0  0  0  0  0  0  0
  186.2617  174.3198  139.0006 C   0  0  0  0  0  0  0  0  0  0  0  0
  184.9939  174.8872  139.5318 C   0  0  1  0  0  0  0  0  0  0  0  0
  183.8920  174.0478  138.8452 C   0  0  0  0  0  0  0  0  0  0  0  0
  184.5329  172.7506  138.4187 C   0  0  0  0  0  0  0  0  0  0  0  0
  184.8960  174.5024  140.9833 C   0  0  0  0  0  0  0  0  0  0  0  0
  184.2734  175.5525  141.8618 C   0  0  1  0  0  0  0  0  0  0  0  0
  184.3740  175.0496  143.1890 O   0  0  0  0  0  0  0  0  0  0  0  0
  183.2732  174.2418  143.3914 C   0  0  0  0  0  0  0  0  0  0  0  0
  183.1675  173.3011  144.2513 O   0  0  0  0  0  0  0  0  0  0  0  0
  182.2555  174.6376  142.4657 N   0  0  0  0  0  0  0  0  0  0  0  0
  180.9320  174.0693  142.3313 C   0  0  0  0  0  0  0  0  0  0  0  0
  180.8984  172.8219  141.4874 C   0  0  0  0  0  0  0  0  0  0  0  0
  181.2797  173.2078  139.7770 Cl  0  0  0  0  0  0  0  0  0  0  0  0
  182.8291  175.7213  141.7125 C   0  0  0  0  0  0  0  0  0  0  0  0
  182.1091  176.5555  141.1091 O   0  0  0  0  0  0  0  0  0  0  0  0
  184.8394  176.3243  139.2338 C   0  0  1  0  0  0  0  0  0  0  0  0
  182.6243  181.2767  138.4492 C   0  0  1  0  0  0  0  0  0  0  0  0
  182.5920  182.7338  138.7189 C   0  0  0  0  0  0  0  0  0  0  0  0
  183.7139  183.5907  138.9395 C   0  0  1  0  0  0  0  0  0  0  0  0
  185.1236  183.1620  138.9019 C   0  0  0  0  0  0  0  0  0  0  0  0
  185.4571  182.7665  137.5762 N   0  0  0  0  0  0  0  0  0  0  0  0
  185.6661  183.9033  136.7757 C   0  0  0  0  0  0  0  0  0  0  0  0
  184.3661  184.6774  136.7289 C   0  0  2  0  0  0  0  0  0  0  0  0
  183.5974  184.1584  135.6863 O   0  0  0  0  0  0  0  0  0  0  0  0
  184.7301  186.1015  136.2646 C   0  0  0  0  0  0  0  0  0  0  0  0
  185.3819  186.8716  137.3932 C   0  0  0  0  0  0  0  0  0  0  0  0
  183.6508  184.8291  138.0119 C   0  0  0  0  0  0  0  0  0  0  0  0
  186.5107  181.7830  137.6599 C   0  0  0  0  0  0  0  0  0  0  0  0
  185.6805  180.4504  137.6660 C   0  0  0  0  0  0  0  0  0  0  0  0
  184.4876  180.6944  136.7851 C   0  0  0  0  0  0  0  0  0  0  0  0
  183.2608  181.0659  137.1225 C   0  0  0  0  0  0  0  0  0  0  0  0
  182.5583  181.2224  135.9505 N   0  0  0  0  0  0  0  0  0  0  0  0
  183.3225  180.9515  134.8866 C   0  0  0  0  0  0  0  0  0  0  0  0
  183.0827  180.9604  133.5260 C   0  0  0  0  0  0  0  0  0  0  0  0
  184.0751  180.6284  132.6199 C   0  0  0  0  0  0  0  0  0  0  0  0
  185.3131  180.2877  133.1177 C   0  0  0  0  0  0  0  0  0  0  0  0
  185.5333  180.2843  134.4754 C   0  0  0  0  0  0  0  0  0  0  0  0
  184.5409  180.6169  135.3928 C   0  0  0  0  0  0  0  0  0  0  0  0
  181.1280  180.9277  138.3959 C   0  0  0  0  0  0  0  0  0  0  0  0
  180.7118  180.0835  139.1921 O   0  0  0  0  0  0  0  0  0  0  0  0
  180.2926  181.5263  137.5047 O   0  0  0  0  0  0  0  0  0  0  0  0
  178.9790  181.9750  137.8280 C   0  0  0  0  0  0  0  0  0  0  0  0
  1  2  1  1
  2  3  1  0
  2  4  1  0
  4  5  2  0
  5  6  1  0
  6  7  1  0
  7  8  1  0
  6  9  2  0
  9 10  1  0
 10 11  2  0
 11 12  1  0
 12 13  1  6
 13 14  1  0
 14 15  1  0
 15 16  1  0
 16 17  1  0
 17 18  2  0
 18 19  1  0
 19 20  1  6
 20 21  1  0
 19 22  1  0
 23 22  1  6
 23 24  1  0
 24 25  1  0
 25 26  2  0
 25 27  1  0
 27 28  1  0
 28 29  1  0
 29 30  1  0
 27 31  1  0
 31 32  2  0
 19 33  1  0
  9 34  1  0
 34 35  1  0
 36 35  1  6
 36 37  1  0
 37 38  1  0
 38 39  1  0
 39 40  1  0
 40 41  1  6
 40 42  1  0
 42 43  1  0
 40 44  1  0
 38 45  1  0
 45 46  1  0
 46 47  1  0
 47 48  2  0
 48 49  1  0
 49 50  1  0
 50 51  2  0
 51 52  1  0
 52 53  2  0
 53 54  1  0
 54 55  2  0
 34 56  1  6
 56 57  2  0
 56 58  1  0
 58 59  1  0
 12  1  1  0
 33 12  1  0
 48 34  1  0
 55 50  1  0
 23  1  1  0
 31 23  1  0
 44 36  1  0
 55 47  1  0
 11  4  1  0
 33 15  1  6
M  END
$$$$
