
     RDKit          3D

 59 68  0  0  0  0  0  0  0  0999 V2000
  129.5334  160.2168  157.9130 C   0  0  2  0  0  0  0  0  0  0  0  0
  130.7732  160.6538  158.5042 N   0  0  0  0  0  0  0  0  0  0  0  0
  131.0843  160.6412  159.9153 C   0  0  0  0  0  0  0  0  0  0  0  0
  131.6147  161.0926  157.4368 C   0  0  0  0  0  0  0  0  0  0  0  0
  132.8207  161.8107  157.4569 C   0  0  0  0  0  0  0  0  0  0  0  0
  133.4644  162.1268  156.2940 C   0  0  0  0  0  0  0  0  0  0  0  0
  134.6628  162.8433  156.3651 O   0  0  0  0  0  0  0  0  0  0  0  0
  135.0304  163.5290  157.5245 C   0  0  0  0  0  0  0  0  0  0  0  0
  132.9167  161.7324  155.0955 C   0  0  0  0  0  0  0  0  0  0  0  0
  131.7589  161.0426  155.0892 C   0  0  0  0  0  0  0  0  0  0  0  0
  131.0574  160.6930  156.2569 C   0  0  0  0  0  0  0  0  0  0  0  0
  129.7943  159.9565  156.4972 C   0  0  1  0  0  0  0  0  0  0  0  0
  130.0880  158.4887  156.2742 C   0  0  0  0  0  0  0  0  0  0  0  0
  129.7857  158.3448  154.8174 C   0  0  0  0  0  0  0  0  0  0  0  0
  129.0243  159.4774  154.4017 N   0  0  0  0  0  0  0  0  0  0  0  0
  127.8681  159.0457  153.6479 C   0  0  0  0  0  0  0  0  0  0  0  0
  126.8520  158.4513  154.5514 C   0  0  0  0  0  0  0  0  0  0  0  0
  126.5990  159.0602  155.6938 C   0  0  0  0  0  0  0  0  0  0  0  0
  127.3333  160.3090  156.0295 C   0  0  1  0  0  0  0  0  0  0  0  0
  126.4913  161.4262  155.3714 C   0  0  0  0  0  0  0  0  0  0  0  0
  125.2819  160.7610  154.7630 C   0  0  0  0  0  0  0  0  0  0  0  0
  127.1706  160.5498  157.5060 C   0  0  0  0  0  0  0  0  0  0  0  0
  128.3815  161.1411  158.1742 C   0  0  1  0  0  0  0  0  0  0  0  0
  128.0689  161.1858  159.5616 O   0  0  0  0  0  0  0  0  0  0  0  0
  127.3863  162.3662  159.7763 C   0  0  0  0  0  0  0  0  0  0  0  0
  126.5905  162.6195  160.7449 O   0  0  0  0  0  0  0  0  0  0  0  0
  127.7219  163.2720  158.7199 N   0  0  0  0  0  0  0  0  0  0  0  0
  127.2442  164.6269  158.5500 C   0  0  0  0  0  0  0  0  0  0  0  0
  126.6876  164.8982  157.1767 C   0  0  0  0  0  0  0  0  0  0  0  0
  127.4494  163.8177  155.9634 Cl  0  0  0  0  0  0  0  0  0  0  0  0
  128.6380  162.5493  157.8778 C   0  0  0  0  0  0  0  0  0  0  0  0
  129.4296  163.1449  157.1050 O   0  0  0  0  0  0  0  0  0  0  0  0
  128.7200  160.3123  155.5245 C   0  0  1  0  0  0  0  0  0  0  0  0
  133.6636  162.0132  153.8767 C   0  0  1  0  0  0  0  0  0  0  0  0
  132.9810  161.7868  152.5806 C   0  0  0  0  0  0  0  0  0  0  0  0
  131.8734  162.5203  152.0545 C   0  0  1  0  0  0  0  0  0  0  0  0
  131.2329  163.6714  152.7157 C   0  0  0  0  0  0  0  0  0  0  0  0
  132.1560  164.7532  152.7694 N   0  0  0  0  0  0  0  0  0  0  0  0
  132.2351  165.3780  151.5123 C   0  0  0  0  0  0  0  0  0  0  0  0
  132.7555  164.3565  150.5237 C   0  0  2  0  0  0  0  0  0  0  0  0
  134.1498  164.3952  150.5639 O   0  0  0  0  0  0  0  0  0  0  0  0
  132.3974  164.8922  149.1233 C   0  0  0  0  0  0  0  0  0  0  0  0
  130.8971  164.8748  148.9220 C   0  0  0  0  0  0  0  0  0  0  0  0
  132.1689  163.0042  150.6134 C   0  0  0  0  0  0  0  0  0  0  0  0
  131.8231  165.5621  153.9179 C   0  0  0  0  0  0  0  0  0  0  0  0
  132.7583  164.9337  155.0115 C   0  0  0  0  0  0  0  0  0  0  0  0
  134.0157  164.5185  154.3009 C   0  0  0  0  0  0  0  0  0  0  0  0
  134.3484  163.3311  153.8147 C   0  0  0  0  0  0  0  0  0  0  0  0
  135.5673  163.4842  153.1964 N   0  0  0  0  0  0  0  0  0  0  0  0
  136.0048  164.7448  153.2908 C   0  0  0  0  0  0  0  0  0  0  0  0
  137.1462  165.3832  152.8452 C   0  0  0  0  0  0  0  0  0  0  0  0
  137.3557  166.7301  153.0861 C   0  0  0  0  0  0  0  0  0  0  0  0
  136.3886  167.4168  153.7858 C   0  0  0  0  0  0  0  0  0  0  0  0
  135.2588  166.7645  154.2216 C   0  0  0  0  0  0  0  0  0  0  0  0
  135.0407  165.4107  153.9835 C   0  0  0  0  0  0  0  0  0  0  0  0
  134.6893  160.8683  153.9026 C   0  0  0  0  0  0  0  0  0  0  0  0
  135.8077  161.0956  153.4363 O   0  0  0  0  0  0  0  0  0  0  0  0
  134.3772  159.6495  154.4198 O   0  0  0  0  0  0  0  0  0  0  0  0
  135.2759  158.5435  154.4398 C   0  0  0  0  0  0  0  0  0  0  0  0
  1  2  1  6
  2  3  1  0
  2  4  1  0
  4  5  2  0
  5  6  1  0
  6  7  1  0
  7  8  1  0
  6  9  2  0
  9 10  1  0
 10 11  2  0
 11 12  1  0
 12 13  1  1
 13 14  1  0
 14 15  1  0
 15 16  1  0
 16 17  1  0
 17 18  2  0
 18 19  1  0
 19 20  1  6
 20 21  1  0
 19 22  1  0
 23 22  1  6
 23 24  1  0
 24 25  1  0
 25 26  2  0
 25 27  1  0
 27 28  1  0
 28 29  1  0
 29 30  1  0
 27 31  1  0
 31 32  2  0
 19 33  1  0
  9 34  1  0
 34 35  1  0
 36 35  1  1
 36 37  1  0
 37 38  1  0
 38 39  1  0
 39 40  1  0
 40 41  1  6
 40 42  1  0
 42 43  1  0
 40 44  1  0
 38 45  1  0
 45 46  1  0
 46 47  1  0
 47 48  2  0
 48 49  1  0
 49 50  1  0
 50 51  2  0
 51 52  1  0
 52 53  2  0
 53 54  1  0
 54 55  2  0
 34 56  1  6
 56 57  2  0
 56 58  1  0
 58 59  1  0
 12  1  1  0
 33 12  1  0
 48 34  1  0
 55 50  1  0
 23  1  1  0
 31 23  1  0
 44 36  1  0
 55 47  1  0
 11  4  1  0
 33 15  1  6
M  END
$$$$
