
     RDKit          3D

 59 68  0  0  0  0  0  0  0  0999 V2000
  191.2110  162.3006  133.8966 C   0  0  2  0  0  0  0  0  0  0  0  0
  191.5572  162.2727  135.2955 N   0  0  0  0  0  0  0  0  0  0  0  0
  192.8564  162.5805  135.8483 C   0  0  0  0  0  0  0  0  0  0  0  0
  190.3821  161.8877  136.0104 C   0  0  0  0  0  0  0  0  0  0  0  0
  190.2108  161.4929  137.3465 C   0  0  0  0  0  0  0  0  0  0  0  0
  188.9739  161.1630  137.8238 C   0  0  0  0  0  0  0  0  0  0  0  0
  188.8535  160.7759  139.1618 O   0  0  0  0  0  0  0  0  0  0  0  0
  189.7351  161.2486  140.1359 C   0  0  0  0  0  0  0  0  0  0  0  0
  187.8909  161.2214  136.9778 C   0  0  0  0  0  0  0  0  0  0  0  0
  188.0680  161.6028  135.6973 C   0  0  0  0  0  0  0  0  0  0  0  0
  189.3188  161.9517  135.1574 C   0  0  0  0  0  0  0  0  0  0  0  0
  189.7534  162.3910  133.8107 C   0  0  1  0  0  0  0  0  0  0  0  0
  189.3208  163.8329  133.6540 C   0  0  0  0  0  0  0  0  0  0  0  0
  187.9592  163.6700  133.0591 C   0  0  0  0  0  0  0  0  0  0  0  0
  187.8403  162.3368  132.5653 N   0  0  0  0  0  0  0  0  0  0  0  0
  187.3186  162.3542  131.2167 C   0  0  0  0  0  0  0  0  0  0  0  0
  188.3570  162.8207  130.2646 C   0  0  0  0  0  0  0  0  0  0  0  0
  189.5838  162.3554  130.4006 C   0  0  0  0  0  0  0  0  0  0  0  0
  189.8770  161.3883  131.4915 C   0  0  1  0  0  0  0  0  0  0  0  0
  189.5391  160.0125  130.8724 C   0  0  0  0  0  0  0  0  0  0  0  0
  189.6062  160.1791  129.3746 C   0  0  0  0  0  0  0  0  0  0  0  0
  191.3700  161.3496  131.6763 C   0  0  0  0  0  0  0  0  0  0  0  0
  191.8131  161.1790  133.1035 C   0  0  1  0  0  0  0  0  0  0  0  0
  193.2323  161.2782  133.0776 O   0  0  0  0  0  0  0  0  0  0  0  0
  193.7126  160.0169  132.7881 C   0  0  0  0  0  0  0  0  0  0  0  0
  194.8533  159.7345  132.2834 O   0  0  0  0  0  0  0  0  0  0  0  0
  192.7076  159.0646  133.1518 N   0  0  0  0  0  0  0  0  0  0  0  0
  192.7879  157.6251  133.0313 C   0  0  0  0  0  0  0  0  0  0  0  0
  192.7647  157.1411  131.6049 C   0  0  0  0  0  0  0  0  0  0  0  0
  191.2299  157.6133  130.8042 Cl  0  0  0  0  0  0  0  0  0  0  0  0
  191.6147  159.8453  133.6681 C   0  0  0  0  0  0  0  0  0  0  0  0
  190.7527  159.3443  134.4323 O   0  0  0  0  0  0  0  0  0  0  0  0
  189.0827  161.6396  132.7096 C   0  0  1  0  0  0  0  0  0  0  0  0
  186.5735  160.9412  137.5329 C   0  0  1  0  0  0  0  0  0  0  0  0
  186.2500  161.5076  138.8639 C   0  0  0  0  0  0  0  0  0  0  0  0
  186.0789  162.8881  139.1904 C   0  0  1  0  0  0  0  0  0  0  0  0
  186.1660  164.0003  138.2272 C   0  0  0  0  0  0  0  0  0  0  0  0
  185.0919  163.9004  137.2990 N   0  0  0  0  0  0  0  0  0  0  0  0
  183.9028  164.3605  137.8914 C   0  0  0  0  0  0  0  0  0  0  0  0
  183.5988  163.4605  139.0701 C   0  0  2  0  0  0  0  0  0  0  0  0
  182.8700  162.3687  138.5967 O   0  0  0  0  0  0  0  0  0  0  0  0
  182.6007  164.2332  139.9549 C   0  0  0  0  0  0  0  0  0  0  0  0
  183.2770  165.4306  140.5877 C   0  0  0  0  0  0  0  0  0  0  0  0
  184.7421  163.1147  139.9385 C   0  0  0  0  0  0  0  0  0  0  0  0
  185.5202  164.5057  136.0602 C   0  0  0  0  0  0  0  0  0  0  0  0
  186.0768  163.2560  135.2897 C   0  0  0  0  0  0  0  0  0  0  0  0
  185.2110  162.0951  135.6910 C   0  0  0  0  0  0  0  0  0  0  0  0
  185.4158  161.1852  136.6328 C   0  0  0  0  0  0  0  0  0  0  0  0
  184.3006  160.3806  136.6550 N   0  0  0  0  0  0  0  0  0  0  0  0
  183.4038  160.7685  135.7413 C   0  0  0  0  0  0  0  0  0  0  0  0
  182.1578  160.2925  135.3810 C   0  0  0  0  0  0  0  0  0  0  0  0
  181.4227  160.8952  134.3748 C   0  0  0  0  0  0  0  0  0  0  0  0
  181.9729  161.9873  133.7416 C   0  0  0  0  0  0  0  0  0  0  0  0
  183.2147  162.4469  134.1138 C   0  0  0  0  0  0  0  0  0  0  0  0
  183.9601  161.8467  135.1243 C   0  0  0  0  0  0  0  0  0  0  0  0
  186.7111  159.4427  137.8475 C   0  0  0  0  0  0  0  0  0  0  0  0
  187.4494  158.7741  137.1210 O   0  0  0  0  0  0  0  0  0  0  0  0
  186.0445  158.8734  138.8876 O   0  0  0  0  0  0  0  0  0  0  0  0
  184.7493  158.2894  138.7742 C   0  0  0  0  0  0  0  0  0  0  0  0
  1  2  1  1
  2  3  1  0
  2  4  1  0
  4  5  2  0
  5  6  1  0
  6  7  1  0
  7  8  1  0
  6  9  2  0
  9 10  1  0
 10 11  2  0
 11 12  1  0
 12 13  1  6
 13 14  1  0
 14 15  1  0
 15 16  1  0
 16 17  1  0
 17 18  2  0
 18 19  1  0
 19 20  1  6
 20 21  1  0
 19 22  1  0
 23 22  1  6
 23 24  1  0
 24 25  1  0
 25 26  2  0
 25 27  1  0
 27 28  1  0
 28 29  1  0
 29 30  1  0
 27 31  1  0
 31 32  2  0
 19 33  1  0
  9 34  1  0
 34 35  1  0
 36 35  1  6
 36 37  1  0
 37 38  1  0
 38 39  1  0
 39 40  1  0
 40 41  1  6
 40 42  1  0
 42 43  1  0
 40 44  1  0
 38 45  1  0
 45 46  1  0
 46 47  1  0
 47 48  2  0
 48 49  1  0
 49 50  1  0
 50 51  2  0
 51 52  1  0
 52 53  2  0
 53 54  1  0
 54 55  2  0
 34 56  1  1
 56 57  2  0
 56 58  1  0
 58 59  1  0
 12  1  1  0
 33 12  1  0
 48 34  1  0
 55 50  1  0
 23  1  1  0
 31 23  1  0
 44 36  1  0
 55 47  1  0
 11  4  1  0
 33 15  1  6
M  END
$$$$
