
     RDKit          3D

 59 68  0  0  0  0  0  0  0  0999 V2000
  175.2667  163.4525  109.8338 C   0  0  2  0  0  0  0  0  0  0  0  0
  175.1797  163.2973  108.4035 N   0  0  0  0  0  0  0  0  0  0  0  0
  176.2787  162.9743  107.5226 C   0  0  0  0  0  0  0  0  0  0  0  0
  173.8169  163.5224  108.0396 C   0  0  0  0  0  0  0  0  0  0  0  0
  173.2243  163.7150  106.7818 C   0  0  0  0  0  0  0  0  0  0  0  0
  171.8779  163.9165  106.6680 C   0  0  0  0  0  0  0  0  0  0  0  0
  171.3339  164.1035  105.3937 O   0  0  0  0  0  0  0  0  0  0  0  0
  172.1264  164.0204  104.2472 C   0  0  0  0  0  0  0  0  0  0  0  0
  171.1030  163.9290  107.8043 C   0  0  0  0  0  0  0  0  0  0  0  0
  171.6834  163.7420  109.0062 C   0  0  0  0  0  0  0  0  0  0  0  0
  173.0633  163.5313  109.1773 C   0  0  0  0  0  0  0  0  0  0  0  0
  173.9133  163.3082  110.3704 C   0  0  1  0  0  0  0  0  0  0  0  0
  173.6734  161.8849  110.8254 C   0  0  0  0  0  0  0  0  0  0  0  0
  172.5400  162.0677  111.7827 C   0  0  0  0  0  0  0  0  0  0  0  0
  172.4572  163.4507  112.1234 N   0  0  0  0  0  0  0  0  0  0  0  0
  172.3614  163.6010  113.5585 C   0  0  0  0  0  0  0  0  0  0  0  0
  173.6714  163.3228  114.1979 C   0  0  0  0  0  0  0  0  0  0  0  0
  174.7577  163.8201  113.6389 C   0  0  0  0  0  0  0  0  0  0  0  0
  174.6300  164.6349  112.4016 C   0  0  1  0  0  0  0  0  0  0  0  0
  174.3723  166.0676  112.9222 C   0  0  0  0  0  0  0  0  0  0  0  0
  174.9574  166.1397  114.3107 C   0  0  0  0  0  0  0  0  0  0  0  0
  175.9922  164.7156  111.7671 C   0  0  0  0  0  0  0  0  0  0  0  0
  175.9767  164.7020  110.2632 C   0  0  1  0  0  0  0  0  0  0  0  0
  177.3430  164.6730  109.8670 O   0  0  0  0  0  0  0  0  0  0  0  0
  177.7760  165.9834  109.8408 C   0  0  0  0  0  0  0  0  0  0  0  0
  178.9859  166.3869  109.9354 O   0  0  0  0  0  0  0  0  0  0  0  0
  176.6297  166.8271  109.6879 N   0  0  0  0  0  0  0  0  0  0  0  0
  176.6167  168.2712  109.6023 C   0  0  0  0  0  0  0  0  0  0  0  0
  176.2223  168.9442  110.8911 C   0  0  0  0  0  0  0  0  0  0  0  0
  175.0712  167.9196  111.8103 Cl  0  0  0  0  0  0  0  0  0  0  0  0
  175.5051  165.9314  109.6283 C   0  0  0  0  0  0  0  0  0  0  0  0
  174.4155  166.2785  109.1083 O   0  0  0  0  0  0  0  0  0  0  0  0
  173.5358  164.1768  111.5236 C   0  0  1  0  0  0  0  0  0  0  0  0
  169.6612  164.0664  107.6476 C   0  0  1  0  0  0  0  0  0  0  0  0
  169.0887  163.8442  106.2986 C   0  0  0  0  0  0  0  0  0  0  0  0
  169.0351  162.6093  105.5820 C   0  0  1  0  0  0  0  0  0  0  0  0
  169.5227  161.3154  106.0925 C   0  0  0  0  0  0  0  0  0  0  0  0
  168.7210  160.9167  107.1986 N   0  0  0  0  0  0  0  0  0  0  0  0
  167.4962  160.4000  106.7406 C   0  0  0  0  0  0  0  0  0  0  0  0
  166.7755  161.5101  106.0056 C   0  0  2  0  0  0  0  0  0  0  0  0
  166.0473  162.2413  106.9448 O   0  0  0  0  0  0  0  0  0  0  0  0
  165.7020  160.8246  105.1374 C   0  0  0  0  0  0  0  0  0  0  0  0
  165.3110  161.7199  103.9811 C   0  0  0  0  0  0  0  0  0  0  0  0
  167.5962  162.3233  105.0859 C   0  0  0  0  0  0  0  0  0  0  0  0
  169.5345  160.0919  108.0600 C   0  0  0  0  0  0  0  0  0  0  0  0
  170.0894  161.1614  109.0667 C   0  0  0  0  0  0  0  0  0  0  0  0
  168.9953  162.1754  109.2479 C   0  0  0  0  0  0  0  0  0  0  0  0
  168.8206  163.3364  108.6326 C   0  0  0  0  0  0  0  0  0  0  0  0
  167.6357  163.8567  109.0982 N   0  0  0  0  0  0  0  0  0  0  0  0
  167.0683  163.0439  109.9965 C   0  0  0  0  0  0  0  0  0  0  0  0
  165.9030  163.1208  110.7348 C   0  0  0  0  0  0  0  0  0  0  0  0
  165.5441  162.1156  111.6162 C   0  0  0  0  0  0  0  0  0  0  0  0
  166.3867  161.0329  111.7351 C   0  0  0  0  0  0  0  0  0  0  0  0
  167.5426  160.9737  110.9919 C   0  0  0  0  0  0  0  0  0  0  0  0
  167.9105  161.9801  110.1038 C   0  0  0  0  0  0  0  0  0  0  0  0
  169.5012  165.5861  107.8169 C   0  0  0  0  0  0  0  0  0  0  0  0
  169.8986  166.0862  108.8714 O   0  0  0  0  0  0  0  0  0  0  0  0
  168.9424  166.3523  106.8417 O   0  0  0  0  0  0  0  0  0  0  0  0
  168.7345  167.7574  106.9595 C   0  0  0  0  0  0  0  0  0  0  0  0
  1  2  1  6
  2  3  1  0
  2  4  1  0
  4  5  2  0
  5  6  1  0
  6  7  1  0
  7  8  1  0
  6  9  2  0
  9 10  1  0
 10 11  2  0
 11 12  1  0
 12 13  1  1
 13 14  1  0
 14 15  1  0
 15 16  1  0
 16 17  1  0
 17 18  2  0
 18 19  1  0
 19 20  1  1
 20 21  1  0
 19 22  1  0
 23 22  1  1
 23 24  1  0
 24 25  1  0
 25 26  2  0
 25 27  1  0
 27 28  1  0
 28 29  1  0
 29 30  1  0
 27 31  1  0
 31 32  2  0
 19 33  1  0
  9 34  1  0
 34 35  1  0
 36 35  1  1
 36 37  1  0
 37 38  1  0
 38 39  1  0
 39 40  1  0
 40 41  1  1
 40 42  1  0
 42 43  1  0
 40 44  1  0
 38 45  1  0
 45 46  1  0
 46 47  1  0
 47 48  2  0
 48 49  1  0
 49 50  1  0
 50 51  2  0
 51 52  1  0
 52 53  2  0
 53 54  1  0
 54 55  2  0
 34 56  1  1
 56 57  2  0
 56 58  1  0
 58 59  1  0
 12  1  1  0
 33 12  1  0
 48 34  1  0
 55 50  1  0
 23  1  1  0
 31 23  1  0
 44 36  1  0
 55 47  1  0
 11  4  1  0
 33 15  1  1
M  END
$$$$
