
     RDKit          3D

 59 68  0  0  0  0  0  0  0  0999 V2000
  122.7744  180.1859  149.8351 C   0  0  2  0  0  0  0  0  0  0  0  0
  122.9905  178.7656  149.7181 N   0  0  0  0  0  0  0  0  0  0  0  0
  124.2641  178.0942  149.8413 C   0  0  0  0  0  0  0  0  0  0  0  0
  121.7189  178.1680  149.4611 C   0  0  0  0  0  0  0  0  0  0  0  0
  121.3838  176.8691  149.0476 C   0  0  0  0  0  0  0  0  0  0  0  0
  120.0787  176.5108  148.8608 C   0  0  0  0  0  0  0  0  0  0  0  0
  119.7950  175.2054  148.4485 O   0  0  0  0  0  0  0  0  0  0  0  0
  120.8012  174.3566  147.9832 C   0  0  0  0  0  0  0  0  0  0  0  0
  119.0895  177.4403  149.0829 C   0  0  0  0  0  0  0  0  0  0  0  0
  119.4237  178.6839  149.4805 C   0  0  0  0  0  0  0  0  0  0  0  0
  120.7504  179.1027  149.6865 C   0  0  0  0  0  0  0  0  0  0  0  0
  121.3520  180.3884  150.1113 C   0  0  1  0  0  0  0  0  0  0  0  0
  121.1152  180.5177  151.6005 C   0  0  0  0  0  0  0  0  0  0  0  0
  119.8014  181.2299  151.6301 C   0  0  0  0  0  0  0  0  0  0  0  0
  119.5634  181.7893  150.3394 N   0  0  0  0  0  0  0  0  0  0  0  0
  119.1680  183.1745  150.4666 C   0  0  0  0  0  0  0  0  0  0  0  0
  120.3353  184.0160  150.8293 C   0  0  0  0  0  0  0  0  0  0  0  0
  121.4789  183.7991  150.2088 C   0  0  0  0  0  0  0  0  0  0  0  0
  121.5544  182.7307  149.1773 C   0  0  1  0  0  0  0  0  0  0  0  0
  121.1057  183.4347  147.8762 C   0  0  0  0  0  0  0  0  0  0  0  0
  119.6393  183.7511  148.0338 C   0  0  0  0  0  0  0  0  0  0  0  0
  123.0093  182.4245  148.9447 C   0  0  0  0  0  0  0  0  0  0  0  0
  123.3013  180.9743  148.6731 C   0  0  1  0  0  0  0  0  0  0  0  0
  124.7187  180.8781  148.5933 O   0  0  0  0  0  0  0  0  0  0  0  0
  125.0640  181.1812  147.2917 C   0  0  0  0  0  0  0  0  0  0  0  0
  126.2012  181.6013  146.8844 O   0  0  0  0  0  0  0  0  0  0  0  0
  123.9217  180.9437  146.4623 N   0  0  0  0  0  0  0  0  0  0  0  0
  123.8348  181.1195  145.0289 C   0  0  0  0  0  0  0  0  0  0  0  0
  124.5170  182.3690  144.5361 C   0  0  0  0  0  0  0  0  0  0  0  0
  123.9367  183.8036  145.4443 Cl  0  0  0  0  0  0  0  0  0  0  0  0
  122.8919  180.4865  147.3573 C   0  0  0  0  0  0  0  0  0  0  0  0
  121.9112  179.8188  146.9442 O   0  0  0  0  0  0  0  0  0  0  0  0
  120.6932  181.5728  149.4868 C   0  0  1  0  0  0  0  0  0  0  0  0
  117.7041  177.0090  148.9531 C   0  0  1  0  0  0  0  0  0  0  0  0
  117.1482  176.8730  147.5857 C   0  0  0  0  0  0  0  0  0  0  0  0
  117.5255  175.9122  146.5978 C   0  0  1  0  0  0  0  0  0  0  0  0
  118.5309  174.8521  146.7922 C   0  0  0  0  0  0  0  0  0  0  0  0
  118.0566  173.9307  147.7675 N   0  0  0  0  0  0  0  0  0  0  0  0
  117.1022  173.0734  147.1921 C   0  0  0  0  0  0  0  0  0  0  0  0
  115.9369  173.9246  146.7347 C   0  0  2  0  0  0  0  0  0  0  0  0
  115.0657  174.0717  147.8148 O   0  0  0  0  0  0  0  0  0  0  0  0
  115.1508  173.0687  145.7219 C   0  0  0  0  0  0  0  0  0  0  0  0
  115.9861  172.8197  144.4842 C   0  0  0  0  0  0  0  0  0  0  0  0
  116.2805  175.1807  146.0384 C   0  0  0  0  0  0  0  0  0  0  0  0
  119.2048  173.3427  148.4157 C   0  0  0  0  0  0  0  0  0  0  0  0
  119.3771  174.2977  149.6500 C   0  0  0  0  0  0  0  0  0  0  0  0
  117.9913  174.7117  150.0576 C   0  0  0  0  0  0  0  0  0  0  0  0
  117.3151  175.8044  149.7323 C   0  0  0  0  0  0  0  0  0  0  0  0
  116.0681  175.6816  150.2993 N   0  0  0  0  0  0  0  0  0  0  0  0
  115.9536  174.5338  150.9766 C   0  0  0  0  0  0  0  0  0  0  0  0
  114.9253  173.9663  151.7042 C   0  0  0  0  0  0  0  0  0  0  0  0
  115.0762  172.7364  152.3212 C   0  0  0  0  0  0  0  0  0  0  0  0
  116.2866  172.0934  152.1873 C   0  0  0  0  0  0  0  0  0  0  0  0
  117.2989  172.6739  151.4591 C   0  0  0  0  0  0  0  0  0  0  0  0
  117.1552  173.9100  150.8358 C   0  0  0  0  0  0  0  0  0  0  0  0
  116.9693  178.2547  149.4749 C   0  0  0  0  0  0  0  0  0  0  0  0
  116.8089  178.3519  150.6934 O   0  0  0  0  0  0  0  0  0  0  0  0
  116.5124  179.2146  148.6263 O   0  0  0  0  0  0  0  0  0  0  0  0
  116.0608  180.4979  149.0511 C   0  0  0  0  0  0  0  0  0  0  0  0
  1  2  1  6
  2  3  1  0
  2  4  1  0
  4  5  2  0
  5  6  1  0
  6  7  1  0
  7  8  1  0
  6  9  2  0
  9 10  1  0
 10 11  2  0
 11 12  1  0
 12 13  1  1
 13 14  1  0
 14 15  1  0
 15 16  1  0
 16 17  1  0
 17 18  2  0
 18 19  1  0
 19 20  1  6
 20 21  1  0
 19 22  1  0
 23 22  1  1
 23 24  1  0
 24 25  1  0
 25 26  2  0
 25 27  1  0
 27 28  1  0
 28 29  1  0
 29 30  1  0
 27 31  1  0
 31 32  2  0
 19 33  1  0
  9 34  1  0
 34 35  1  0
 36 35  1  1
 36 37  1  0
 37 38  1  0
 38 39  1  0
 39 40  1  0
 40 41  1  1
 40 42  1  0
 42 43  1  0
 40 44  1  0
 38 45  1  0
 45 46  1  0
 46 47  1  0
 47 48  2  0
 48 49  1  0
 49 50  1  0
 50 51  2  0
 51 52  1  0
 52 53  2  0
 53 54  1  0
 54 55  2  0
 34 56  1  1
 56 57  2  0
 56 58  1  0
 58 59  1  0
 12  1  1  0
 33 12  1  0
 48 34  1  0
 55 50  1  0
 23  1  1  0
 31 23  1  0
 44 36  1  0
 55 47  1  0
 11  4  1  0
 33 15  1  1
M  END
$$$$
