
     RDKit          3D

 59 68  0  0  0  0  0  0  0  0999 V2000
  201.0094  136.2153  131.6877 C   0  0  2  0  0  0  0  0  0  0  0  0
  200.0756  135.7699  132.6912 N   0  0  0  0  0  0  0  0  0  0  0  0
  198.6415  135.9403  132.6425 C   0  0  0  0  0  0  0  0  0  0  0  0
  200.8372  135.1394  133.7220 C   0  0  0  0  0  0  0  0  0  0  0  0
  200.4701  134.7339  135.0148 C   0  0  0  0  0  0  0  0  0  0  0  0
  201.3788  134.1406  135.8447 C   0  0  0  0  0  0  0  0  0  0  0  0
  200.9657  133.7541  137.1233 O   0  0  0  0  0  0  0  0  0  0  0  0
  199.6122  133.6213  137.4392 C   0  0  0  0  0  0  0  0  0  0  0  0
  202.6649  133.9427  135.3994 C   0  0  0  0  0  0  0  0  0  0  0  0
  203.0052  134.3354  134.1558 C   0  0  0  0  0  0  0  0  0  0  0  0
  202.1087  134.9504  133.2637 C   0  0  0  0  0  0  0  0  0  0  0  0
  202.2474  135.4594  131.8790 C   0  0  1  0  0  0  0  0  0  0  0  0
  202.2780  134.2537  130.9647 C   0  0  0  0  0  0  0  0  0  0  0  0
  203.7434  133.9648  130.9057 C   0  0  0  0  0  0  0  0  0  0  0  0
  204.4478  135.1120  131.3780 N   0  0  0  0  0  0  0  0  0  0  0  0
  205.5085  135.4543  130.4566 C   0  0  0  0  0  0  0  0  0  0  0  0
  204.9491  136.0649  129.2251 C   0  0  0  0  0  0  0  0  0  0  0  0
  203.9871  136.9584  129.3521 C   0  0  0  0  0  0  0  0  0  0  0  0
  203.5050  137.3184  130.7121 C   0  0  1  0  0  0  0  0  0  0  0  0
  204.4635  138.4447  131.1625 C   0  0  0  0  0  0  0  0  0  0  0  0
  205.1424  138.9639  129.9194 C   0  0  0  0  0  0  0  0  0  0  0  0
  202.1769  138.0087  130.5563 C   0  0  0  0  0  0  0  0  0  0  0  0
  201.1887  137.7038  131.6483 C   0  0  1  0  0  0  0  0  0  0  0  0
  199.9818  138.3520  131.2637 O   0  0  0  0  0  0  0  0  0  0  0  0
  200.0680  139.6526  131.7183 C   0  0  0  0  0  0  0  0  0  0  0  0
  199.4250  140.6610  131.2654 O   0  0  0  0  0  0  0  0  0  0  0  0
  201.0099  139.6850  132.7959 N   0  0  0  0  0  0  0  0  0  0  0  0
  201.4032  140.8394  133.5740 C   0  0  0  0  0  0  0  0  0  0  0  0
  202.6063  141.5552  133.0177 C   0  0  0  0  0  0  0  0  0  0  0  0
  202.2188  142.3000  131.4319 Cl  0  0  0  0  0  0  0  0  0  0  0  0
  201.4672  138.3283  132.9404 C   0  0  0  0  0  0  0  0  0  0  0  0
  201.9758  137.9171  134.0130 O   0  0  0  0  0  0  0  0  0  0  0  0
  203.5340  136.1801  131.6508 C   0  0  1  0  0  0  0  0  0  0  0  0
  203.5910  133.2368  136.2748 C   0  0  1  0  0  0  0  0  0  0  0  0
  203.0259  132.5127  137.4382 C   0  0  0  0  0  0  0  0  0  0  0  0
  202.1940  131.3515  137.4046 C   0  0  1  0  0  0  0  0  0  0  0  0
  201.7778  130.6466  136.1788 C   0  0  0  0  0  0  0  0  0  0  0  0
  202.9214  130.0668  135.5615 N   0  0  0  0  0  0  0  0  0  0  0  0
  203.2905  128.8939  136.2433 C   0  0  0  0  0  0  0  0  0  0  0  0
  203.6593  129.2824  137.6592 C   0  0  2  0  0  0  0  0  0  0  0  0
  205.0082  129.6395  137.6663 O   0  0  0  0  0  0  0  0  0  0  0  0
  203.6017  127.9852  138.4899 C   0  0  0  0  0  0  0  0  0  0  0  0
  202.1634  127.5837  138.7384 C   0  0  0  0  0  0  0  0  0  0  0  0
  202.7588  130.2435  138.3273 C   0  0  0  0  0  0  0  0  0  0  0  0
  202.6642  129.9840  134.1433 C   0  0  0  0  0  0  0  0  0  0  0  0
  203.2905  131.3341  133.6432 C   0  0  0  0  0  0  0  0  0  0  0  0
  204.4838  131.5936  134.5190 C   0  0  0  0  0  0  0  0  0  0  0  0
  204.5747  132.3440  135.6078 C   0  0  0  0  0  0  0  0  0  0  0  0
  205.8569  132.1976  136.0834 N   0  0  0  0  0  0  0  0  0  0  0  0
  206.5706  131.3724  135.3093 C   0  0  0  0  0  0  0  0  0  0  0  0
  207.8749  130.9200  135.3639 C   0  0  0  0  0  0  0  0  0  0  0  0
  208.3730  130.0490  134.4103 C   0  0  0  0  0  0  0  0  0  0  0  0
  207.5260  129.6458  133.4021 C   0  0  0  0  0  0  0  0  0  0  0  0
  206.2307  130.1067  133.3641 C   0  0  0  0  0  0  0  0  0  0  0  0
  205.7223  130.9824  134.3189 C   0  0  0  0  0  0  0  0  0  0  0  0
  204.3020  134.4212  136.9496 C   0  0  0  0  0  0  0  0  0  0  0  0
  204.1407  134.5653  138.1633 O   0  0  0  0  0  0  0  0  0  0  0  0
  205.0801  135.2794  136.2366 O   0  0  0  0  0  0  0  0  0  0  0  0
  205.7560  136.3969  136.8075 C   0  0  0  0  0  0  0  0  0  0  0  0
  1  2  1  1
  2  3  1  0
  2  4  1  0
  4  5  2  0
  5  6  1  0
  6  7  1  0
  7  8  1  0
  6  9  2  0
  9 10  1  0
 10 11  2  0
 11 12  1  0
 12 13  1  6
 13 14  1  0
 14 15  1  0
 15 16  1  0
 16 17  1  0
 17 18  2  0
 18 19  1  0
 19 20  1  1
 20 21  1  0
 19 22  1  0
 23 22  1  6
 23 24  1  0
 24 25  1  0
 25 26  2  0
 25 27  1  0
 27 28  1  0
 28 29  1  0
 29 30  1  0
 27 31  1  0
 31 32  2  0
 19 33  1  0
  9 34  1  0
 34 35  1  0
 36 35  1  6
 36 37  1  0
 37 38  1  0
 38 39  1  0
 39 40  1  0
 40 41  1  6
 40 42  1  0
 42 43  1  0
 40 44  1  0
 38 45  1  0
 45 46  1  0
 46 47  1  0
 47 48  2  0
 48 49  1  0
 49 50  1  0
 50 51  2  0
 51 52  1  0
 52 53  2  0
 53 54  1  0
 54 55  2  0
 34 56  1  1
 56 57  2  0
 56 58  1  0
 58 59  1  0
 12  1  1  0
 33 12  1  0
 48 34  1  0
 55 50  1  0
 23  1  1  0
 31 23  1  0
 44 36  1  0
 55 47  1  0
 11  4  1  0
 33 15  1  6
M  END
$$$$
