
     RDKit          3D

 59 68  0  0  0  0  0  0  0  0999 V2000
  129.3879  141.2953  135.0030 C   0  0  2  0  0  0  0  0  0  0  0  0
  130.7675  141.3470  134.5886 N   0  0  0  0  0  0  0  0  0  0  0  0
  131.8233  142.0674  135.2626 C   0  0  0  0  0  0  0  0  0  0  0  0
  130.8784  140.5591  133.4024 C   0  0  0  0  0  0  0  0  0  0  0  0
  131.9226  140.4478  132.4709 C   0  0  0  0  0  0  0  0  0  0  0  0
  131.8097  139.6179  131.3915 C   0  0  0  0  0  0  0  0  0  0  0  0
  132.8766  139.5409  130.4913 O   0  0  0  0  0  0  0  0  0  0  0  0
  134.1721  139.8990  130.8692 C   0  0  0  0  0  0  0  0  0  0  0  0
  130.6561  138.8877  131.2246 C   0  0  0  0  0  0  0  0  0  0  0  0
  129.6609  139.0024  132.1262 C   0  0  0  0  0  0  0  0  0  0  0  0
  129.7272  139.8418  133.2526 C   0  0  0  0  0  0  0  0  0  0  0  0
  128.7828  140.1304  134.3573 C   0  0  1  0  0  0  0  0  0  0  0  0
  128.8102  138.9363  135.2869 C   0  0  0  0  0  0  0  0  0  0  0  0
  127.7263  138.0857  134.7072 C   0  0  0  0  0  0  0  0  0  0  0  0
  126.9324  138.8959  133.8420 N   0  0  0  0  0  0  0  0  0  0  0  0
  125.5295  138.7070  134.1378 C   0  0  0  0  0  0  0  0  0  0  0  0
  125.1728  139.3788  135.4120 C   0  0  0  0  0  0  0  0  0  0  0  0
  125.6499  140.5880  135.6358 C   0  0  0  0  0  0  0  0  0  0  0  0
  126.5176  141.2275  134.6114 C   0  0  1  0  0  0  0  0  0  0  0  0
  125.5191  141.9159  133.6526 C   0  0  0  0  0  0  0  0  0  0  0  0
  124.1551  141.3516  133.9635 C   0  0  0  0  0  0  0  0  0  0  0  0
  127.2367  142.3715  135.2739 C   0  0  0  0  0  0  0  0  0  0  0  0
  128.6453  142.5809  134.7901 C   0  0  1  0  0  0  0  0  0  0  0  0
  129.1791  143.6183  135.6046 O   0  0  0  0  0  0  0  0  0  0  0  0
  128.8107  144.8123  135.0181 C   0  0  0  0  0  0  0  0  0  0  0  0
  128.7223  145.9491  135.5972 O   0  0  0  0  0  0  0  0  0  0  0  0
  128.5403  144.5627  133.6347 N   0  0  0  0  0  0  0  0  0  0  0  0
  128.1321  145.5298  132.6391 C   0  0  0  0  0  0  0  0  0  0  0  0
  129.2889  146.1841  131.9298 C   0  0  0  0  0  0  0  0  0  0  0  0
  130.2786  147.1364  133.0844 Cl  0  0  0  0  0  0  0  0  0  0  0  0
  128.7714  143.1543  133.4514 C   0  0  0  0  0  0  0  0  0  0  0  0
  129.0179  142.6710  132.3183 O   0  0  0  0  0  0  0  0  0  0  0  0
  127.3696  140.2583  133.8954 C   0  0  1  0  0  0  0  0  0  0  0  0
  130.5941  137.9522  130.1096 C   0  0  1  0  0  0  0  0  0  0  0  0
  131.7722  137.0855  129.8687 C   0  0  0  0  0  0  0  0  0  0  0  0
  132.2485  136.0321  130.7083 C   0  0  1  0  0  0  0  0  0  0  0  0
  131.6120  135.6022  131.9663 C   0  0  0  0  0  0  0  0  0  0  0  0
  130.3372  135.0396  131.6771 N   0  0  0  0  0  0  0  0  0  0  0  0
  130.4919  133.7336  131.1799 C   0  0  0  0  0  0  0  0  0  0  0  0
  131.2766  133.8238  129.8885 C   0  0  2  0  0  0  0  0  0  0  0  0
  130.3691  134.0466  128.8522 O   0  0  0  0  0  0  0  0  0  0  0  0
  131.8259  132.4088  129.6195 C   0  0  0  0  0  0  0  0  0  0  0  0
  132.7531  131.9836  130.7380 C   0  0  0  0  0  0  0  0  0  0  0  0
  132.4443  134.7278  129.8967 C   0  0  0  0  0  0  0  0  0  0  0  0
  129.4937  135.2388  132.8317 C   0  0  0  0  0  0  0  0  0  0  0  0
  128.7900  136.5928  132.4620 C   0  0  0  0  0  0  0  0  0  0  0  0
  128.6068  136.5775  130.9705 C   0  0  0  0  0  0  0  0  0  0  0  0
  129.3739  137.1070  130.0281 C   0  0  0  0  0  0  0  0  0  0  0  0
  128.8151  136.7584  128.8208 N   0  0  0  0  0  0  0  0  0  0  0  0
  127.7102  136.0239  128.9912 C   0  0  0  0  0  0  0  0  0  0  0  0
  126.8139  135.4497  128.1103 C   0  0  0  0  0  0  0  0  0  0  0  0
  125.7268  134.7229  128.5644 C   0  0  0  0  0  0  0  0  0  0  0  0
  125.5653  134.5891  129.9254 C   0  0  0  0  0  0  0  0  0  0  0  0
  126.4677  135.1678  130.7871 C   0  0  0  0  0  0  0  0  0  0  0  0
  127.5631  135.9000  130.3387 C   0  0  0  0  0  0  0  0  0  0  0  0
  130.6628  138.9237  128.9200 C   0  0  0  0  0  0  0  0  0  0  0  0
  129.8210  139.8231  128.8705 O   0  0  0  0  0  0  0  0  0  0  0  0
  131.6153  138.7979  127.9571 O   0  0  0  0  0  0  0  0  0  0  0  0
  132.3222  139.8995  127.3932 C   0  0  0  0  0  0  0  0  0  0  0  0
  1  2  1  6
  2  3  1  0
  2  4  1  0
  4  5  2  0
  5  6  1  0
  6  7  1  0
  7  8  1  0
  6  9  2  0
  9 10  1  0
 10 11  2  0
 11 12  1  0
 12 13  1  1
 13 14  1  0
 14 15  1  0
 15 16  1  0
 16 17  1  0
 17 18  2  0
 18 19  1  0
 19 20  1  6
 20 21  1  0
 19 22  1  0
 23 22  1  1
 23 24  1  0
 24 25  1  0
 25 26  2  0
 25 27  1  0
 27 28  1  0
 28 29  1  0
 29 30  1  0
 27 31  1  0
 31 32  2  0
 19 33  1  0
  9 34  1  0
 34 35  1  0
 36 35  1  6
 36 37  1  0
 37 38  1  0
 38 39  1  0
 39 40  1  0
 40 41  1  6
 40 42  1  0
 42 43  1  0
 40 44  1  0
 38 45  1  0
 45 46  1  0
 46 47  1  0
 47 48  2  0
 48 49  1  0
 49 50  1  0
 50 51  2  0
 51 52  1  0
 52 53  2  0
 53 54  1  0
 54 55  2  0
 34 56  1  6
 56 57  2  0
 56 58  1  0
 58 59  1  0
 12  1  1  0
 33 12  1  0
 48 34  1  0
 55 50  1  0
 23  1  1  0
 31 23  1  0
 44 36  1  0
 55 47  1  0
 11  4  1  0
 33 15  1  1
M  END
$$$$
