
     RDKit          3D

 59 68  0  0  0  0  0  0  0  0999 V2000
  130.3732  140.7253  133.0011 C   0  0  2  0  0  0  0  0  0  0  0  0
  131.4534  141.4789  132.4157 N   0  0  0  0  0  0  0  0  0  0  0  0
  132.2462  142.4797  133.0925 C   0  0  0  0  0  0  0  0  0  0  0  0
  131.5798  141.0463  131.0603 C   0  0  0  0  0  0  0  0  0  0  0  0
  132.3047  141.5909  129.9887 C   0  0  0  0  0  0  0  0  0  0  0  0
  132.2797  140.9999  128.7571 C   0  0  0  0  0  0  0  0  0  0  0  0
  133.0181  141.5795  127.7210 O   0  0  0  0  0  0  0  0  0  0  0  0
  134.2580  142.1756  127.9591 C   0  0  0  0  0  0  0  0  0  0  0  0
  131.5330  139.8592  128.5755 C   0  0  0  0  0  0  0  0  0  0  0  0
  130.8420  139.3454  129.6123 C   0  0  0  0  0  0  0  0  0  0  0  0
  130.8341  139.9149  130.8981 C   0  0  0  0  0  0  0  0  0  0  0  0
  130.1662  139.5414  132.1669 C   0  0  1  0  0  0  0  0  0  0  0  0
  130.9201  138.3571  132.7325 C   0  0  0  0  0  0  0  0  0  0  0  0
  130.1807  137.2140  132.1153 C   0  0  0  0  0  0  0  0  0  0  0  0
  128.9325  137.6987  131.6229 N   0  0  0  0  0  0  0  0  0  0  0  0
  127.8591  136.8350  132.0623 C   0  0  0  0  0  0  0  0  0  0  0  0
  127.5883  137.0380  133.5072 C   0  0  0  0  0  0  0  0  0  0  0  0
  127.5589  138.2729  133.9700 C   0  0  0  0  0  0  0  0  0  0  0  0
  127.7940  139.4048  133.0348 C   0  0  1  0  0  0  0  0  0  0  0  0
  126.3941  139.7047  132.4513 C   0  0  0  0  0  0  0  0  0  0  0  0
  125.4016  139.4978  133.5683 C   0  0  0  0  0  0  0  0  0  0  0  0
  128.1134  140.6203  133.8626 C   0  0  0  0  0  0  0  0  0  0  0  0
  129.1361  141.5365  133.2486 C   0  0  1  0  0  0  0  0  0  0  0  0
  129.3761  142.5476  134.2204 O   0  0  0  0  0  0  0  0  0  0  0  0
  128.4103  143.5157  134.0322 C   0  0  0  0  0  0  0  0  0  0  0  0
  128.0060  144.3655  134.8981 O   0  0  0  0  0  0  0  0  0  0  0  0
  127.9301  143.4086  132.6879 N   0  0  0  0  0  0  0  0  0  0  0  0
  126.9211  144.2303  132.0558 C   0  0  0  0  0  0  0  0  0  0  0  0
  126.4299  145.3545  132.9300 C   0  0  0  0  0  0  0  0  0  0  0  0
  125.3492  146.4470  132.0037 Cl  0  0  0  0  0  0  0  0  0  0  0  0
  128.6715  142.3212  132.1061 C   0  0  0  0  0  0  0  0  0  0  0  0
  128.8032  142.2072  130.8619 O   0  0  0  0  0  0  0  0  0  0  0  0
  128.7617  139.0774  131.9698 C   0  0  1  0  0  0  0  0  0  0  0  0
  131.5875  139.2059  127.2745 C   0  0  1  0  0  0  0  0  0  0  0  0
  132.9106  138.7513  126.7847 C   0  0  0  0  0  0  0  0  0  0  0  0
  133.7132  137.7024  127.3298 C   0  0  1  0  0  0  0  0  0  0  0  0
  133.3333  136.8579  128.4765 C   0  0  0  0  0  0  0  0  0  0  0  0
  132.2119  136.0587  128.1176 N   0  0  0  0  0  0  0  0  0  0  0  0
  132.6291  134.9792  127.3193 C   0  0  0  0  0  0  0  0  0  0  0  0
  133.2315  135.5502  126.0532 C   0  0  2  0  0  0  0  0  0  0  0  0
  132.1958  135.7482  125.1393 O   0  0  0  0  0  0  0  0  0  0  0  0
  134.0793  134.4218  125.4335 C   0  0  0  0  0  0  0  0  0  0  0  0
  135.1357  133.9592  126.4140 C   0  0  0  0  0  0  0  0  0  0  0  0
  134.1375  136.7038  126.2248 C   0  0  0  0  0  0  0  0  0  0  0  0
  131.4681  135.7742  129.3219 C   0  0  0  0  0  0  0  0  0  0  0  0
  130.4209  136.9440  129.3138 C   0  0  0  0  0  0  0  0  0  0  0  0
  130.0951  137.2065  127.8705 C   0  0  0  0  0  0  0  0  0  0  0  0
  130.6091  138.1100  127.0480 C   0  0  0  0  0  0  0  0  0  0  0  0
  130.0317  137.8990  125.8177 N   0  0  0  0  0  0  0  0  0  0  0  0
  129.1631  136.8825  125.8569 C   0  0  0  0  0  0  0  0  0  0  0  0
  128.3489  136.3000  124.9047 C   0  0  0  0  0  0  0  0  0  0  0  0
  127.5247  135.2336  125.2202 C   0  0  0  0  0  0  0  0  0  0  0  0
  127.5410  134.7693  126.5166 C   0  0  0  0  0  0  0  0  0  0  0  0
  128.3581  135.3618  127.4510 C   0  0  0  0  0  0  0  0  0  0  0  0
  129.1896  136.4342  127.1418 C   0  0  0  0  0  0  0  0  0  0  0  0
  131.2946  140.3965  126.3469 C   0  0  0  0  0  0  0  0  0  0  0  0
  130.1868  140.9298  126.4380 O   0  0  0  0  0  0  0  0  0  0  0  0
  132.2209  140.8464  125.4582 O   0  0  0  0  0  0  0  0  0  0  0  0
  131.9942  141.9257  124.5554 C   0  0  0  0  0  0  0  0  0  0  0  0
  1  2  1  6
  2  3  1  0
  2  4  1  0
  4  5  2  0
  5  6  1  0
  6  7  1  0
  7  8  1  0
  6  9  2  0
  9 10  1  0
 10 11  2  0
 11 12  1  0
 12 13  1  1
 13 14  1  0
 14 15  1  0
 15 16  1  0
 16 17  1  0
 17 18  2  0
 18 19  1  0
 19 20  1  6
 20 21  1  0
 19 22  1  0
 23 22  1  1
 23 24  1  0
 24 25  1  0
 25 26  2  0
 25 27  1  0
 27 28  1  0
 28 29  1  0
 29 30  1  0
 27 31  1  0
 31 32  2  0
 19 33  1  0
  9 34  1  0
 34 35  1  0
 36 35  1  6
 36 37  1  0
 37 38  1  0
 38 39  1  0
 39 40  1  0
 40 41  1  6
 40 42  1  0
 42 43  1  0
 40 44  1  0
 38 45  1  0
 45 46  1  0
 46 47  1  0
 47 48  2  0
 48 49  1  0
 49 50  1  0
 50 51  2  0
 51 52  1  0
 52 53  2  0
 53 54  1  0
 54 55  2  0
 34 56  1  6
 56 57  2  0
 56 58  1  0
 58 59  1  0
 12  1  1  0
 33 12  1  0
 48 34  1  0
 55 50  1  0
 23  1  1  0
 31 23  1  0
 44 36  1  0
 55 47  1  0
 11  4  1  0
 33 15  1  1
M  END
$$$$
