
     RDKit          3D

 59 68  0  0  0  0  0  0  0  0999 V2000
  129.7540  142.4732  134.1478 C   0  0  2  0  0  0  0  0  0  0  0  0
  130.9183  142.6551  133.3179 N   0  0  0  0  0  0  0  0  0  0  0  0
  131.7458  143.8390  133.2749 C   0  0  0  0  0  0  0  0  0  0  0  0
  131.0859  141.4547  132.5622 C   0  0  0  0  0  0  0  0  0  0  0  0
  131.9074  141.1736  131.4592 C   0  0  0  0  0  0  0  0  0  0  0  0
  131.9056  139.9337  130.8854 C   0  0  0  0  0  0  0  0  0  0  0  0
  132.7411  139.7020  129.7887 O   0  0  0  0  0  0  0  0  0  0  0  0
  133.5916  140.6964  129.3016 C   0  0  0  0  0  0  0  0  0  0  0  0
  131.0863  138.9569  131.4016 C   0  0  0  0  0  0  0  0  0  0  0  0
  130.3029  139.2385  132.4614 C   0  0  0  0  0  0  0  0  0  0  0  0
  130.2673  140.4974  133.0875 C   0  0  0  0  0  0  0  0  0  0  0  0
  129.5047  141.0345  134.2388 C   0  0  1  0  0  0  0  0  0  0  0  0
  130.1353  140.4662  135.4918 C   0  0  0  0  0  0  0  0  0  0  0  0
  129.3470  139.2096  135.6756 C   0  0  0  0  0  0  0  0  0  0  0  0
  128.1676  139.2973  134.8775 N   0  0  0  0  0  0  0  0  0  0  0  0
  127.0099  138.9374  135.6658 C   0  0  0  0  0  0  0  0  0  0  0  0
  126.6763  140.0215  136.6227 C   0  0  0  0  0  0  0  0  0  0  0  0
  126.7145  141.2681  136.1929 C   0  0  0  0  0  0  0  0  0  0  0  0
  127.0849  141.5375  134.7781 C   0  0  1  0  0  0  0  0  0  0  0  0
  125.7456  141.4284  134.0136 C   0  0  0  0  0  0  0  0  0  0  0  0
  124.6478  141.6770  135.0178 C   0  0  0  0  0  0  0  0  0  0  0  0
  127.4490  142.9939  134.6724 C   0  0  0  0  0  0  0  0  0  0  0  0
  128.5697  143.2839  133.7122 C   0  0  1  0  0  0  0  0  0  0  0  0
  128.8314  144.6767  133.8396 O   0  0  0  0  0  0  0  0  0  0  0  0
  127.9529  145.3241  132.9943 C   0  0  0  0  0  0  0  0  0  0  0  0
  127.5668  146.5399  133.0844 O   0  0  0  0  0  0  0  0  0  0  0  0
  127.5404  144.3952  131.9862 N   0  0  0  0  0  0  0  0  0  0  0  0
  126.6322  144.6478  130.8888 C   0  0  0  0  0  0  0  0  0  0  0  0
  127.1311  145.6945  129.9271 C   0  0  0  0  0  0  0  0  0  0  0  0
  128.6866  145.1848  129.1922 Cl  0  0  0  0  0  0  0  0  0  0  0  0
  128.2288  143.1700  132.2953 C   0  0  0  0  0  0  0  0  0  0  0  0
  128.4195  142.2856  131.4236 O   0  0  0  0  0  0  0  0  0  0  0  0
  128.0822  140.5839  134.2548 C   0  0  1  0  0  0  0  0  0  0  0  0
  131.1628  137.6229  130.8211 C   0  0  1  0  0  0  0  0  0  0  0  0
  132.4832  137.1551  130.3366 C   0  0  0  0  0  0  0  0  0  0  0  0
  133.6336  136.8604  131.1313 C   0  0  1  0  0  0  0  0  0  0  0  0
  133.6875  136.9439  132.6019 C   0  0  0  0  0  0  0  0  0  0  0  0
  132.8265  135.9569  133.1584 N   0  0  0  0  0  0  0  0  0  0  0  0
  133.4427  134.6946  133.0970 C   0  0  0  0  0  0  0  0  0  0  0  0
  133.6661  134.3631  131.6369 C   0  0  2  0  0  0  0  0  0  0  0  0
  132.5067  133.7541  131.1552 O   0  0  0  0  0  0  0  0  0  0  0  0
  134.7270  133.2451  131.6073 C   0  0  0  0  0  0  0  0  0  0  0  0
  135.9892  133.6998  132.3086 C   0  0  0  0  0  0  0  0  0  0  0  0
  134.1905  135.4556  130.7929 C   0  0  0  0  0  0  0  0  0  0  0  0
  132.3740  136.4378  134.4422 C   0  0  0  0  0  0  0  0  0  0  0  0
  131.0282  137.1417  134.0439 C   0  0  0  0  0  0  0  0  0  0  0  0
  130.4472  136.3320  132.9192 C   0  0  0  0  0  0  0  0  0  0  0  0
  130.5451  136.5259  131.6116 C   0  0  0  0  0  0  0  0  0  0  0  0
  129.9003  135.4728  131.0060 N   0  0  0  0  0  0  0  0  0  0  0  0
  129.3975  134.6261  131.9113 C   0  0  0  0  0  0  0  0  0  0  0  0
  128.6803  133.4498  131.8066 C   0  0  0  0  0  0  0  0  0  0  0  0
  128.2717  132.7557  132.9324 C   0  0  0  0  0  0  0  0  0  0  0  0
  128.6029  133.2750  134.1641 C   0  0  0  0  0  0  0  0  0  0  0  0
  129.3174  134.4473  134.2486 C   0  0  0  0  0  0  0  0  0  0  0  0
  129.7319  135.1511  133.1217 C   0  0  0  0  0  0  0  0  0  0  0  0
  130.3983  137.8419  129.5053 C   0  0  0  0  0  0  0  0  0  0  0  0
  130.0223  138.9879  129.2497 O   0  0  0  0  0  0  0  0  0  0  0  0
  130.1450  136.8120  128.6537 O   0  0  0  0  0  0  0  0  0  0  0  0
  129.2046  136.8805  127.5850 C   0  0  0  0  0  0  0  0  0  0  0  0
  1  2  1  6
  2  3  1  0
  2  4  1  0
  4  5  2  0
  5  6  1  0
  6  7  1  0
  7  8  1  0
  6  9  2  0
  9 10  1  0
 10 11  2  0
 11 12  1  0
 12 13  1  1
 13 14  1  0
 14 15  1  0
 15 16  1  0
 16 17  1  0
 17 18  2  0
 18 19  1  0
 19 20  1  6
 20 21  1  0
 19 22  1  0
 23 22  1  1
 23 24  1  0
 24 25  1  0
 25 26  2  0
 25 27  1  0
 27 28  1  0
 28 29  1  0
 29 30  1  0
 27 31  1  0
 31 32  2  0
 19 33  1  0
  9 34  1  0
 34 35  1  0
 36 35  1  1
 36 37  1  0
 37 38  1  0
 38 39  1  0
 39 40  1  0
 40 41  1  6
 40 42  1  0
 42 43  1  0
 40 44  1  0
 38 45  1  0
 45 46  1  0
 46 47  1  0
 47 48  2  0
 48 49  1  0
 49 50  1  0
 50 51  2  0
 51 52  1  0
 52 53  2  0
 53 54  1  0
 54 55  2  0
 34 56  1  6
 56 57  2  0
 56 58  1  0
 58 59  1  0
 12  1  1  0
 33 12  1  0
 48 34  1  0
 55 50  1  0
 23  1  1  0
 31 23  1  0
 44 36  1  0
 55 47  1  0
 11  4  1  0
 33 15  1  1
M  END
$$$$
