
     RDKit          3D

 59 68  0  0  0  0  0  0  0  0999 V2000
  135.3064  184.4545  151.7062 C   0  0  2  0  0  0  0  0  0  0  0  0
  134.7822  183.2724  152.3430 N   0  0  0  0  0  0  0  0  0  0  0  0
  135.4521  182.4967  153.3616 C   0  0  0  0  0  0  0  0  0  0  0  0
  133.4943  183.0273  151.7762 C   0  0  0  0  0  0  0  0  0  0  0  0
  132.6533  181.9067  151.8632 C   0  0  0  0  0  0  0  0  0  0  0  0
  131.4436  181.8908  151.2284 C   0  0  0  0  0  0  0  0  0  0  0  0
  130.6411  180.7519  151.3446 O   0  0  0  0  0  0  0  0  0  0  0  0
  130.9617  179.7264  152.2362 C   0  0  0  0  0  0  0  0  0  0  0  0
  131.0546  182.9898  150.4985 C   0  0  0  0  0  0  0  0  0  0  0  0
  131.8703  184.0600  150.4232 C   0  0  0  0  0  0  0  0  0  0  0  0
  133.1241  184.1263  151.0568 C   0  0  0  0  0  0  0  0  0  0  0  0
  134.1743  185.1698  151.1169 C   0  0  1  0  0  0  0  0  0  0  0  0
  133.6780  186.2441  152.0603 C   0  0  0  0  0  0  0  0  0  0  0  0
  132.9583  187.1549  151.1186 C   0  0  0  0  0  0  0  0  0  0  0  0
  133.3699  186.8437  149.7885 N   0  0  0  0  0  0  0  0  0  0  0  0
  133.7264  188.0560  149.0853 C   0  0  0  0  0  0  0  0  0  0  0  0
  135.0279  188.5754  149.5735 C   0  0  0  0  0  0  0  0  0  0  0  0
  136.0089  187.7162  149.7719 C   0  0  0  0  0  0  0  0  0  0  0  0
  135.7764  186.2728  149.4995 C   0  0  1  0  0  0  0  0  0  0  0  0
  136.0921  186.1209  147.9937 C   0  0  0  0  0  0  0  0  0  0  0  0
  135.8649  187.4714  147.3612 C   0  0  0  0  0  0  0  0  0  0  0  0
  136.8711  185.4986  150.1828 C   0  0  0  0  0  0  0  0  0  0  0  0
  136.4321  184.1785  150.7543 C   0  0  1  0  0  0  0  0  0  0  0  0
  137.5661  183.6636  151.4424 O   0  0  0  0  0  0  0  0  0  0  0  0
  138.3276  182.9937  150.5060 C   0  0  0  0  0  0  0  0  0  0  0  0
  139.5782  182.7380  150.5844 O   0  0  0  0  0  0  0  0  0  0  0  0
  137.4727  182.6280  149.4176 N   0  0  0  0  0  0  0  0  0  0  0  0
  137.8464  181.9036  148.2224 C   0  0  0  0  0  0  0  0  0  0  0  0
  138.6238  182.7356  147.2361 C   0  0  0  0  0  0  0  0  0  0  0  0
  140.2426  183.1435  147.8938 Cl  0  0  0  0  0  0  0  0  0  0  0  0
  136.1705  183.1253  149.7749 C   0  0  0  0  0  0  0  0  0  0  0  0
  135.1240  182.6516  149.2663 O   0  0  0  0  0  0  0  0  0  0  0  0
  134.3972  185.8463  149.8056 C   0  0  1  0  0  0  0  0  0  0  0  0
  129.7273  182.9773  149.8981 C   0  0  1  0  0  0  0  0  0  0  0  0
  128.6264  182.3517  150.6688 C   0  0  0  0  0  0  0  0  0  0  0  0
  128.0551  182.8273  151.8890 C   0  0  1  0  0  0  0  0  0  0  0  0
  128.4542  184.0657  152.5815 C   0  0  0  0  0  0  0  0  0  0  0  0
  128.1102  185.1853  151.7733 N   0  0  0  0  0  0  0  0  0  0  0  0
  126.7316  185.4425  151.8732 C   0  0  0  0  0  0  0  0  0  0  0  0
  125.9984  184.2289  151.3427 C   0  0  2  0  0  0  0  0  0  0  0  0
  125.8656  184.3803  149.9619 O   0  0  0  0  0  0  0  0  0  0  0  0
  124.5569  184.3288  151.8797 C   0  0  0  0  0  0  0  0  0  0  0  0
  124.5612  184.3646  153.3931 C   0  0  0  0  0  0  0  0  0  0  0  0
  126.5130  182.9146  151.7768 C   0  0  0  0  0  0  0  0  0  0  0  0
  129.0315  186.2532  152.0817 C   0  0  0  0  0  0  0  0  0  0  0  0
  130.1377  186.0224  150.9916 C   0  0  0  0  0  0  0  0  0  0  0  0
  129.4236  185.5211  149.7680 C   0  0  0  0  0  0  0  0  0  0  0  0
  129.2370  184.2736  149.3607 C   0  0  0  0  0  0  0  0  0  0  0  0
  128.4639  184.3396  148.2251 N   0  0  0  0  0  0  0  0  0  0  0  0
  128.1672  185.6059  147.9126 C   0  0  0  0  0  0  0  0  0  0  0  0
  127.4387  186.1789  146.8880 C   0  0  0  0  0  0  0  0  0  0  0  0
  127.2853  187.5515  146.7967 C   0  0  0  0  0  0  0  0  0  0  0  0
  127.8830  188.3314  147.7616 C   0  0  0  0  0  0  0  0  0  0  0  0
  128.6045  187.7433  148.7742 C   0  0  0  0  0  0  0  0  0  0  0  0
  128.7634  186.3641  148.8730 C   0  0  0  0  0  0  0  0  0  0  0  0
  129.9394  181.9632  148.7623 C   0  0  0  0  0  0  0  0  0  0  0  0
  129.8808  180.7659  149.0501 O   0  0  0  0  0  0  0  0  0  0  0  0
  130.1828  182.3691  147.4870 O   0  0  0  0  0  0  0  0  0  0  0  0
  130.9720  181.6310  146.5576 C   0  0  0  0  0  0  0  0  0  0  0  0
  1  2  1  6
  2  3  1  0
  2  4  1  0
  4  5  2  0
  5  6  1  0
  6  7  1  0
  7  8  1  0
  6  9  2  0
  9 10  1  0
 10 11  2  0
 11 12  1  0
 12 13  1  1
 13 14  1  0
 14 15  1  0
 15 16  1  0
 16 17  1  0
 17 18  2  0
 18 19  1  0
 19 20  1  6
 20 21  1  0
 19 22  1  0
 23 22  1  6
 23 24  1  0
 24 25  1  0
 25 26  2  0
 25 27  1  0
 27 28  1  0
 28 29  1  0
 29 30  1  0
 27 31  1  0
 31 32  2  0
 19 33  1  0
  9 34  1  0
 34 35  1  0
 36 35  1  6
 36 37  1  0
 37 38  1  0
 38 39  1  0
 39 40  1  0
 40 41  1  6
 40 42  1  0
 42 43  1  0
 40 44  1  0
 38 45  1  0
 45 46  1  0
 46 47  1  0
 47 48  2  0
 48 49  1  0
 49 50  1  0
 50 51  2  0
 51 52  1  0
 52 53  2  0
 53 54  1  0
 54 55  2  0
 34 56  1  6
 56 57  2  0
 56 58  1  0
 58 59  1  0
 12  1  1  0
 33 12  1  0
 48 34  1  0
 55 50  1  0
 23  1  1  0
 31 23  1  0
 44 36  1  0
 55 47  1  0
 11  4  1  0
 33 15  1  1
M  END
$$$$
