
     RDKit          3D

 59 68  0  0  0  0  0  0  0  0999 V2000
  163.8237  147.7190  124.3691 C   0  0  2  0  0  0  0  0  0  0  0  0
  162.5212  148.3361  124.3686 N   0  0  0  0  0  0  0  0  0  0  0  0
  162.1448  149.5090  123.6131 C   0  0  0  0  0  0  0  0  0  0  0  0
  161.6947  147.5710  125.2470 C   0  0  0  0  0  0  0  0  0  0  0  0
  160.4269  147.8459  125.7833 C   0  0  0  0  0  0  0  0  0  0  0  0
  159.8133  146.9542  126.6170 C   0  0  0  0  0  0  0  0  0  0  0  0
  158.5507  147.2727  127.1260 O   0  0  0  0  0  0  0  0  0  0  0  0
  157.9297  148.4852  126.8198 C   0  0  0  0  0  0  0  0  0  0  0  0
  160.4531  145.7771  126.9282 C   0  0  0  0  0  0  0  0  0  0  0  0
  161.6696  145.5241  126.4064 C   0  0  0  0  0  0  0  0  0  0  0  0
  162.3436  146.4079  125.5448 C   0  0  0  0  0  0  0  0  0  0  0  0
  163.6574  146.3515  124.8618 C   0  0  1  0  0  0  0  0  0  0  0  0
  163.5143  145.3860  123.7052 C   0  0  0  0  0  0  0  0  0  0  0  0
  163.8990  144.0934  124.3501 C   0  0  0  0  0  0  0  0  0  0  0  0
  164.5695  144.3837  125.5754 N   0  0  0  0  0  0  0  0  0  0  0  0
  165.7963  143.6227  125.6596 C   0  0  0  0  0  0  0  0  0  0  0  0
  166.8190  144.1840  124.7424 C   0  0  0  0  0  0  0  0  0  0  0  0
  166.9580  145.4946  124.6882 C   0  0  0  0  0  0  0  0  0  0  0  0
  166.0939  146.3524  125.5419 C   0  0  1  0  0  0  0  0  0  0  0  0
  166.8577  146.4348  126.8836 C   0  0  0  0  0  0  0  0  0  0  0  0
  166.0706  145.6265  127.8848 C   0  0  0  0  0  0  0  0  0  0  0  0
  166.1616  147.7531  124.9958 C   0  0  0  0  0  0  0  0  0  0  0  0
  164.8695  148.5173  125.0892 C   0  0  1  0  0  0  0  0  0  0  0  0
  165.1090  149.7552  124.4297 O   0  0  0  0  0  0  0  0  0  0  0  0
  165.6662  150.6022  125.3665 C   0  0  0  0  0  0  0  0  0  0  0  0
  166.3867  151.6315  125.1283 O   0  0  0  0  0  0  0  0  0  0  0  0
  165.2982  150.1300  126.6669 N   0  0  0  0  0  0  0  0  0  0  0  0
  165.6538  150.7185  127.9397 C   0  0  0  0  0  0  0  0  0  0  0  0
  166.1775  149.7182  128.9369 C   0  0  0  0  0  0  0  0  0  0  0  0
  165.8188  148.0446  128.3981 Cl  0  0  0  0  0  0  0  0  0  0  0  0
  164.4960  148.9587  126.4318 C   0  0  0  0  0  0  0  0  0  0  0  0
  163.6903  148.5301  127.2951 O   0  0  0  0  0  0  0  0  0  0  0  0
  164.7392  145.7974  125.7275 C   0  0  1  0  0  0  0  0  0  0  0  0
  159.7428  144.8104  127.7549 C   0  0  1  0  0  0  0  0  0  0  0  0
  158.2979  145.0370  127.9957 C   0  0  0  0  0  0  0  0  0  0  0  0
  157.2457  144.9652  127.0317 C   0  0  1  0  0  0  0  0  0  0  0  0
  157.4247  144.6134  125.6116 C   0  0  0  0  0  0  0  0  0  0  0  0
  157.8500  143.2588  125.5153 N   0  0  0  0  0  0  0  0  0  0  0  0
  156.7543  142.3984  125.7047 C   0  0  0  0  0  0  0  0  0  0  0  0
  156.2230  142.6324  127.1029 C   0  0  2  0  0  0  0  0  0  0  0  0
  156.9407  141.8130  127.9750 O   0  0  0  0  0  0  0  0  0  0  0  0
  154.7941  142.0543  127.1221 C   0  0  0  0  0  0  0  0  0  0  0  0
  153.9936  142.6696  128.2500 C   0  0  0  0  0  0  0  0  0  0  0  0
  156.1065  144.0415  127.5289 C   0  0  0  0  0  0  0  0  0  0  0  0
  158.6270  143.1241  124.3060 C   0  0  0  0  0  0  0  0  0  0  0  0
  160.0797  143.3625  124.8521 C   0  0  0  0  0  0  0  0  0  0  0  0
  160.1100  142.7765  126.2355 C   0  0  0  0  0  0  0  0  0  0  0  0
  159.9340  143.3788  127.4030 C   0  0  0  0  0  0  0  0  0  0  0  0
  159.9860  142.3983  128.3660 N   0  0  0  0  0  0  0  0  0  0  0  0
  160.1954  141.1942  127.8221 C   0  0  0  0  0  0  0  0  0  0  0  0
  160.3254  139.9271  128.3572 C   0  0  0  0  0  0  0  0  0  0  0  0
  160.5439  138.8253  127.5482 C   0  0  0  0  0  0  0  0  0  0  0  0
  160.6280  139.0313  126.1892 C   0  0  0  0  0  0  0  0  0  0  0  0
  160.4961  140.3000  125.6747 C   0  0  0  0  0  0  0  0  0  0  0  0
  160.2764  141.4129  126.4811 C   0  0  0  0  0  0  0  0  0  0  0  0
  160.3492  145.1169  129.1340 C   0  0  0  0  0  0  0  0  0  0  0  0
  161.5726  145.2535  129.2001 O   0  0  0  0  0  0  0  0  0  0  0  0
  159.5675  145.2334  130.2411 O   0  0  0  0  0  0  0  0  0  0  0  0
  159.3199  146.4673  130.9101 C   0  0  0  0  0  0  0  0  0  0  0  0
  1  2  1  1
  2  3  1  0
  2  4  1  0
  4  5  2  0
  5  6  1  0
  6  7  1  0
  7  8  1  0
  6  9  2  0
  9 10  1  0
 10 11  2  0
 11 12  1  0
 12 13  1  6
 13 14  1  0
 14 15  1  0
 15 16  1  0
 16 17  1  0
 17 18  2  0
 18 19  1  0
 19 20  1  1
 20 21  1  0
 19 22  1  0
 23 22  1  1
 23 24  1  0
 24 25  1  0
 25 26  2  0
 25 27  1  0
 27 28  1  0
 28 29  1  0
 29 30  1  0
 27 31  1  0
 31 32  2  0
 19 33  1  0
  9 34  1  0
 34 35  1  0
 36 35  1  1
 36 37  1  0
 37 38  1  0
 38 39  1  0
 39 40  1  0
 40 41  1  1
 40 42  1  0
 42 43  1  0
 40 44  1  0
 38 45  1  0
 45 46  1  0
 46 47  1  0
 47 48  2  0
 48 49  1  0
 49 50  1  0
 50 51  2  0
 51 52  1  0
 52 53  2  0
 53 54  1  0
 54 55  2  0
 34 56  1  1
 56 57  2  0
 56 58  1  0
 58 59  1  0
 12  1  1  0
 33 12  1  0
 48 34  1  0
 55 50  1  0
 23  1  1  0
 31 23  1  0
 44 36  1  0
 55 47  1  0
 11  4  1  0
 33 15  1  6
M  END
$$$$
