
     RDKit          3D

 59 68  0  0  0  0  0  0  0  0999 V2000
  189.6974  177.0726  127.3295 C   0  0  2  0  0  0  0  0  0  0  0  0
  190.6396  176.1406  126.7627 N   0  0  0  0  0  0  0  0  0  0  0  0
  191.6084  175.3660  127.5040 C   0  0  0  0  0  0  0  0  0  0  0  0
  190.4272  176.1369  125.3502 C   0  0  0  0  0  0  0  0  0  0  0  0
  191.1976  175.5949  124.3094 C   0  0  0  0  0  0  0  0  0  0  0  0
  190.7952  175.7122  123.0091 C   0  0  0  0  0  0  0  0  0  0  0  0
  191.5962  175.1559  122.0073 O   0  0  0  0  0  0  0  0  0  0  0  0
  192.8335  174.5806  122.3035 C   0  0  0  0  0  0  0  0  0  0  0  0
  189.6208  176.3703  122.7270 C   0  0  0  0  0  0  0  0  0  0  0  0
  188.8894  176.8856  123.7350 C   0  0  0  0  0  0  0  0  0  0  0  0
  189.2593  176.7925  125.0887 C   0  0  0  0  0  0  0  0  0  0  0  0
  188.6341  177.2700  126.3443 C   0  0  1  0  0  0  0  0  0  0  0  0
  187.4664  176.3519  126.6348 C   0  0  0  0  0  0  0  0  0  0  0  0
  186.3546  177.0541  125.9240 C   0  0  0  0  0  0  0  0  0  0  0  0
  186.7710  178.3899  125.6454 N   0  0  0  0  0  0  0  0  0  0  0  0
  185.7428  179.3225  126.0508 C   0  0  0  0  0  0  0  0  0  0  0  0
  185.7009  179.4380  127.5297 C   0  0  0  0  0  0  0  0  0  0  0  0
  186.8439  179.5227  128.1826 C   0  0  0  0  0  0  0  0  0  0  0  0
  188.1198  179.5015  127.4190 C   0  0  1  0  0  0  0  0  0  0  0  0
  188.3518  180.9817  127.0375 C   0  0  0  0  0  0  0  0  0  0  0  0
  188.0524  181.1052  125.5642 C   0  0  0  0  0  0  0  0  0  0  0  0
  189.2272  179.1964  128.3914 C   0  0  0  0  0  0  0  0  0  0  0  0
  190.3272  178.3392  127.8281 C   0  0  1  0  0  0  0  0  0  0  0  0
  191.2039  178.0774  128.9177 O   0  0  0  0  0  0  0  0  0  0  0  0
  192.0810  179.1412  128.9854 C   0  0  0  0  0  0  0  0  0  0  0  0
  192.7462  179.5148  130.0118 O   0  0  0  0  0  0  0  0  0  0  0  0
  192.1225  179.7652  127.6977 N   0  0  0  0  0  0  0  0  0  0  0  0
  192.9164  180.9110  127.3107 C   0  0  0  0  0  0  0  0  0  0  0  0
  194.2618  180.9635  127.9865 C   0  0  0  0  0  0  0  0  0  0  0  0
  195.2742  182.2626  127.2745 Cl  0  0  0  0  0  0  0  0  0  0  0  0
  191.2178  179.0035  126.8781 C   0  0  0  0  0  0  0  0  0  0  0  0
  191.3029  179.0099  125.6246 O   0  0  0  0  0  0  0  0  0  0  0  0
  188.0575  178.6409  126.2218 C   0  0  1  0  0  0  0  0  0  0  0  0
  189.1758  176.4116  121.3405 C   0  0  1  0  0  0  0  0  0  0  0  0
  190.1291  176.9163  120.3238 C   0  0  0  0  0  0  0  0  0  0  0  0
  191.3431  176.2923  119.9013 C   0  0  1  0  0  0  0  0  0  0  0  0
  191.8424  174.9966  120.3955 C   0  0  0  0  0  0  0  0  0  0  0  0
  190.9553  173.9642  119.9803 N   0  0  0  0  0  0  0  0  0  0  0  0
  191.1769  173.6585  118.6260 C   0  0  0  0  0  0  0  0  0  0  0  0
  190.8715  174.9020  117.8185 C   0  0  2  0  0  0  0  0  0  0  0  0
  189.5056  174.9011  117.5333 O   0  0  0  0  0  0  0  0  0  0  0  0
  191.5494  174.7023  116.4486 C   0  0  0  0  0  0  0  0  0  0  0  0
  192.0430  173.2780  116.3092 C   0  0  0  0  0  0  0  0  0  0  0  0
  191.3925  176.1742  118.3580 C   0  0  0  0  0  0  0  0  0  0  0  0
  191.0371  172.8953  120.9474 C   0  0  0  0  0  0  0  0  0  0  0  0
  189.8649  173.2770  121.9197 C   0  0  0  0  0  0  0  0  0  0  0  0
  188.7923  173.8904  121.0644 C   0  0  0  0  0  0  0  0  0  0  0  0
  188.5522  175.1695  120.8132 C   0  0  0  0  0  0  0  0  0  0  0  0
  187.5087  175.2080  119.9182 N   0  0  0  0  0  0  0  0  0  0  0  0
  187.0892  173.9762  119.6082 C   0  0  0  0  0  0  0  0  0  0  0  0
  186.0929  173.5000  118.7779 C   0  0  0  0  0  0  0  0  0  0  0  0
  185.8640  172.1421  118.6370 C   0  0  0  0  0  0  0  0  0  0  0  0
  186.6624  171.2773  119.3519 C   0  0  0  0  0  0  0  0  0  0  0  0
  187.6494  171.7698  120.1736 C   0  0  0  0  0  0  0  0  0  0  0  0
  187.8858  173.1334  120.3208 C   0  0  0  0  0  0  0  0  0  0  0  0
  188.1458  177.5511  121.4070 C   0  0  0  0  0  0  0  0  0  0  0  0
  188.3320  178.5296  120.6806 O   0  0  0  0  0  0  0  0  0  0  0  0
  187.0689  177.4847  122.2354 O   0  0  0  0  0  0  0  0  0  0  0  0
  185.7341  177.2705  121.7842 C   0  0  0  0  0  0  0  0  0  0  0  0
  1  2  1  6
  2  3  1  0
  2  4  1  0
  4  5  2  0
  5  6  1  0
  6  7  1  0
  7  8  1  0
  6  9  2  0
  9 10  1  0
 10 11  2  0
 11 12  1  0
 12 13  1  1
 13 14  1  0
 14 15  1  0
 15 16  1  0
 16 17  1  0
 17 18  2  0
 18 19  1  0
 19 20  1  6
 20 21  1  0
 19 22  1  0
 23 22  1  1
 23 24  1  0
 24 25  1  0
 25 26  2  0
 25 27  1  0
 27 28  1  0
 28 29  1  0
 29 30  1  0
 27 31  1  0
 31 32  2  0
 19 33  1  0
  9 34  1  0
 34 35  1  0
 36 35  1  6
 36 37  1  0
 37 38  1  0
 38 39  1  0
 39 40  1  0
 40 41  1  6
 40 42  1  0
 42 43  1  0
 40 44  1  0
 38 45  1  0
 45 46  1  0
 46 47  1  0
 47 48  2  0
 48 49  1  0
 49 50  1  0
 50 51  2  0
 51 52  1  0
 52 53  2  0
 53 54  1  0
 54 55  2  0
 34 56  1  1
 56 57  2  0
 56 58  1  0
 58 59  1  0
 12  1  1  0
 33 12  1  0
 48 34  1  0
 55 50  1  0
 23  1  1  0
 31 23  1  0
 44 36  1  0
 55 47  1  0
 11  4  1  0
 33 15  1  1
M  END
$$$$
