
     RDKit          3D

 59 68  0  0  0  0  0  0  0  0999 V2000
  204.4708  127.3230  131.1297 C   0  0  2  0  0  0  0  0  0  0  0  0
  204.3449  128.4136  130.1957 N   0  0  0  0  0  0  0  0  0  0  0  0
  204.5105  128.3195  128.7633 C   0  0  0  0  0  0  0  0  0  0  0  0
  204.0302  129.5816  130.9552 C   0  0  0  0  0  0  0  0  0  0  0  0
  204.0196  130.9368  130.5895 C   0  0  0  0  0  0  0  0  0  0  0  0
  203.6807  131.9016  131.4955 C   0  0  0  0  0  0  0  0  0  0  0  0
  203.6847  133.2378  131.0841 O   0  0  0  0  0  0  0  0  0  0  0  0
  203.3599  133.5945  129.7738 C   0  0  0  0  0  0  0  0  0  0  0  0
  203.3479  131.5308  132.7775 C   0  0  0  0  0  0  0  0  0  0  0  0
  203.3608  130.2264  133.1163 C   0  0  0  0  0  0  0  0  0  0  0  0
  203.7023  129.1958  132.2225 C   0  0  0  0  0  0  0  0  0  0  0  0
  203.7882  127.7230  132.3604 C   0  0  1  0  0  0  0  0  0  0  0  0
  202.3696  127.1958  132.3740 C   0  0  0  0  0  0  0  0  0  0  0  0
  202.0591  127.2210  133.8360 C   0  0  0  0  0  0  0  0  0  0  0  0
  203.2856  127.3410  134.5547 N   0  0  0  0  0  0  0  0  0  0  0  0
  203.3351  126.3587  135.6149 C   0  0  0  0  0  0  0  0  0  0  0  0
  203.5705  125.0041  135.0565 C   0  0  0  0  0  0  0  0  0  0  0  0
  204.4736  124.8688  134.1046 C   0  0  0  0  0  0  0  0  0  0  0  0
  205.2165  126.0674  133.6325 C   0  0  1  0  0  0  0  0  0  0  0  0
  206.4138  126.1722  134.6049 C   0  0  0  0  0  0  0  0  0  0  0  0
  205.8417  126.2057  136.0003 C   0  0  0  0  0  0  0  0  0  0  0  0
  205.8476  125.7205  132.3111 C   0  0  0  0  0  0  0  0  0  0  0  0
  205.8824  126.8552  131.3246 C   0  0  1  0  0  0  0  0  0  0  0  0
  206.4058  126.3013  130.1230 O   0  0  0  0  0  0  0  0  0  0  0  0
  207.7811  126.3609  130.2251 C   0  0  0  0  0  0  0  0  0  0  0  0
  208.6231  125.6368  129.5909 O   0  0  0  0  0  0  0  0  0  0  0  0
  208.1124  127.3820  131.1721 N   0  0  0  0  0  0  0  0  0  0  0  0
  209.4378  127.7931  131.5812 C   0  0  0  0  0  0  0  0  0  0  0  0
  209.5862  127.9380  133.0733 C   0  0  0  0  0  0  0  0  0  0  0  0
  209.5189  126.3325  133.8719 Cl  0  0  0  0  0  0  0  0  0  0  0  0
  206.8501  127.9116  131.6156 C   0  0  0  0  0  0  0  0  0  0  0  0
  206.7604  129.0567  132.1246 O   0  0  0  0  0  0  0  0  0  0  0  0
  204.3974  127.2948  133.6536 C   0  0  1  0  0  0  0  0  0  0  0  0
  202.9143  132.5717  133.6999 C   0  0  1  0  0  0  0  0  0  0  0  0
  202.6983  132.1931  135.1166 C   0  0  0  0  0  0  0  0  0  0  0  0
  203.6947  131.7921  136.0590 C   0  0  1  0  0  0  0  0  0  0  0  0
  205.1400  131.7188  135.7794 C   0  0  0  0  0  0  0  0  0  0  0  0
  205.6371  133.0303  135.5389 N   0  0  0  0  0  0  0  0  0  0  0  0
  205.7951  133.7134  136.7576 C   0  0  0  0  0  0  0  0  0  0  0  0
  204.4286  133.8321  137.3981 C   0  0  2  0  0  0  0  0  0  0  0  0
  203.8220  134.9854  136.8991 O   0  0  0  0  0  0  0  0  0  0  0  0
  204.6772  134.1432  138.8872 C   0  0  0  0  0  0  0  0  0  0  0  0
  204.8536  132.8595  139.6700 C   0  0  0  0  0  0  0  0  0  0  0  0
  203.5842  132.6211  137.3624 C   0  0  0  0  0  0  0  0  0  0  0  0
  206.7791  132.9168  134.6629 C   0  0  0  0  0  0  0  0  0  0  0  0
  206.1020  133.1005  133.2583 C   0  0  0  0  0  0  0  0  0  0  0  0
  204.9774  134.0769  133.4584 C   0  0  0  0  0  0  0  0  0  0  0  0
  203.6912  133.8387  133.6731 C   0  0  0  0  0  0  0  0  0  0  0  0
  203.0886  135.0605  133.8617 N   0  0  0  0  0  0  0  0  0  0  0  0
  203.9739  136.0587  133.7648 C   0  0  0  0  0  0  0  0  0  0  0  0
  203.8628  137.4318  133.8705 C   0  0  0  0  0  0  0  0  0  0  0  0
  204.9659  138.2547  133.7220 C   0  0  0  0  0  0  0  0  0  0  0  0
  206.1816  137.6611  133.4646 C   0  0  0  0  0  0  0  0  0  0  0  0
  206.2729  136.2925  133.3627 C   0  0  0  0  0  0  0  0  0  0  0  0
  205.1687  135.4582  133.5108 C   0  0  0  0  0  0  0  0  0  0  0  0
  201.4764  132.8052  133.2083 C   0  0  0  0  0  0  0  0  0  0  0  0
  201.1351  133.9675  132.9789 O   0  0  0  0  0  0  0  0  0  0  0  0
  200.6113  131.7704  133.0323 O   0  0  0  0  0  0  0  0  0  0  0  0
  199.5354  131.4773  133.9199 C   0  0  0  0  0  0  0  0  0  0  0  0
  1  2  1  6
  2  3  1  0
  2  4  1  0
  4  5  2  0
  5  6  1  0
  6  7  1  0
  7  8  1  0
  6  9  2  0
  9 10  1  0
 10 11  2  0
 11 12  1  0
 12 13  1  6
 13 14  1  0
 14 15  1  0
 15 16  1  0
 16 17  1  0
 17 18  2  0
 18 19  1  0
 19 20  1  1
 20 21  1  0
 19 22  1  0
 23 22  1  1
 23 24  1  0
 24 25  1  0
 25 26  2  0
 25 27  1  0
 27 28  1  0
 28 29  1  0
 29 30  1  0
 27 31  1  0
 31 32  2  0
 19 33  1  0
  9 34  1  0
 34 35  1  0
 36 35  1  6
 36 37  1  0
 37 38  1  0
 38 39  1  0
 39 40  1  0
 40 41  1  6
 40 42  1  0
 42 43  1  0
 40 44  1  0
 38 45  1  0
 45 46  1  0
 46 47  1  0
 47 48  2  0
 48 49  1  0
 49 50  1  0
 50 51  2  0
 51 52  1  0
 52 53  2  0
 53 54  1  0
 54 55  2  0
 34 56  1  6
 56 57  2  0
 56 58  1  0
 58 59  1  0
 12  1  1  0
 33 12  1  0
 48 34  1  0
 55 50  1  0
 23  1  1  0
 31 23  1  0
 44 36  1  0
 55 47  1  0
 11  4  1  0
 33 15  1  1
M  END
$$$$
