
     RDKit          3D

 59 68  0  0  0  0  0  0  0  0999 V2000
  190.4397  159.2064  132.9168 C   0  0  2  0  0  0  0  0  0  0  0  0
  189.1751  158.5732  132.6384 N   0  0  0  0  0  0  0  0  0  0  0  0
  188.9952  157.3242  131.9342 C   0  0  0  0  0  0  0  0  0  0  0  0
  188.1570  159.4112  133.1873 C   0  0  0  0  0  0  0  0  0  0  0  0
  186.7640  159.3933  133.0148 C   0  0  0  0  0  0  0  0  0  0  0  0
  185.9703  160.3069  133.6488 C   0  0  0  0  0  0  0  0  0  0  0  0
  184.5883  160.2488  133.4458 O   0  0  0  0  0  0  0  0  0  0  0  0
  184.0500  159.7577  132.2548 C   0  0  0  0  0  0  0  0  0  0  0  0
  186.5522  161.2505  134.4630 C   0  0  0  0  0  0  0  0  0  0  0  0
  187.8905  161.2570  134.6214 C   0  0  0  0  0  0  0  0  0  0  0  0
  188.7510  160.3399  133.9917 C   0  0  0  0  0  0  0  0  0  0  0  0
  190.2209  160.1535  134.0101 C   0  0  1  0  0  0  0  0  0  0  0  0
  190.5702  159.5181  135.3386 C   0  0  0  0  0  0  0  0  0  0  0  0
  190.8062  160.7239  136.1899 C   0  0  0  0  0  0  0  0  0  0  0  0
  190.9789  161.8523  135.3342 N   0  0  0  0  0  0  0  0  0  0  0  0
  192.1549  162.5959  135.7285 C   0  0  0  0  0  0  0  0  0  0  0  0
  193.3860  161.8660  135.3361 C   0  0  0  0  0  0  0  0  0  0  0  0
  193.4299  161.3128  134.1395 C   0  0  0  0  0  0  0  0  0  0  0  0
  192.2557  161.4417  133.2361 C   0  0  1  0  0  0  0  0  0  0  0  0
  192.4913  162.7840  132.5060 C   0  0  0  0  0  0  0  0  0  0  0  0
  193.9434  163.1406  132.7051 C   0  0  0  0  0  0  0  0  0  0  0  0
  192.3985  160.4063  132.1535 C   0  0  0  0  0  0  0  0  0  0  0  0
  191.0992  159.7956  131.7054 C   0  0  1  0  0  0  0  0  0  0  0  0
  191.4549  158.7799  130.7746 O   0  0  0  0  0  0  0  0  0  0  0  0
  191.5787  159.3948  129.5449 C   0  0  0  0  0  0  0  0  0  0  0  0
  192.2523  158.9678  128.5452 O   0  0  0  0  0  0  0  0  0  0  0  0
  190.8170  160.6064  129.5754 N   0  0  0  0  0  0  0  0  0  0  0  0
  190.6554  161.5606  128.5001 C   0  0  0  0  0  0  0  0  0  0  0  0
  190.5411  160.9188  127.1419 C   0  0  0  0  0  0  0  0  0  0  0  0
  189.1270  159.8158  127.0833 Cl  0  0  0  0  0  0  0  0  0  0  0  0
  190.2445  160.6611  130.8945 C   0  0  0  0  0  0  0  0  0  0  0  0
  189.2241  161.3517  131.1398 O   0  0  0  0  0  0  0  0  0  0  0  0
  190.9709  161.4427  133.9622 C   0  0  1  0  0  0  0  0  0  0  0  0
  185.6768  162.1615  135.1883 C   0  0  1  0  0  0  0  0  0  0  0  0
  184.2171  162.0472  134.9575 C   0  0  0  0  0  0  0  0  0  0  0  0
  183.3717  160.9580  135.3326 C   0  0  1  0  0  0  0  0  0  0  0  0
  183.8175  159.7545  136.0574 C   0  0  0  0  0  0  0  0  0  0  0  0
  184.2284  160.1235  137.3689 N   0  0  0  0  0  0  0  0  0  0  0  0
  183.1011  160.3312  138.1830 C   0  0  0  0  0  0  0  0  0  0  0  0
  182.3119  161.4792  137.5906 C   0  0  2  0  0  0  0  0  0  0  0  0
  182.8307  162.6664  138.1090 O   0  0  0  0  0  0  0  0  0  0  0  0
  180.8963  161.3841  138.1932 C   0  0  0  0  0  0  0  0  0  0  0  0
  180.0851  160.3332  137.4657 C   0  0  0  0  0  0  0  0  0  0  0  0
  182.1407  161.4645  136.1238 C   0  0  0  0  0  0  0  0  0  0  0  0
  185.2236  159.1726  137.8046 C   0  0  0  0  0  0  0  0  0  0  0  0
  186.5461  159.8991  137.3705 C   0  0  0  0  0  0  0  0  0  0  0  0
  186.2955  161.3700  137.5486 C   0  0  0  0  0  0  0  0  0  0  0  0
  185.9065  162.2666  136.6532 C   0  0  0  0  0  0  0  0  0  0  0  0
  185.7517  163.4562  137.3258 N   0  0  0  0  0  0  0  0  0  0  0  0
  186.0408  163.3207  138.6248 C   0  0  0  0  0  0  0  0  0  0  0  0
  186.0407  164.2027  139.6883 C   0  0  0  0  0  0  0  0  0  0  0  0
  186.3923  163.7910  140.9623 C   0  0  0  0  0  0  0  0  0  0  0  0
  186.7435  162.4710  141.1380 C   0  0  0  0  0  0  0  0  0  0  0  0
  186.7378  161.6076  140.0674 C   0  0  0  0  0  0  0  0  0  0  0  0
  186.3856  162.0136  138.7836 C   0  0  0  0  0  0  0  0  0  0  0  0
  186.0083  163.4901  134.4893 C   0  0  0  0  0  0  0  0  0  0  0  0
  185.2775  163.8425  133.5610 O   0  0  0  0  0  0  0  0  0  0  0  0
  187.0674  164.2499  134.8783 O   0  0  0  0  0  0  0  0  0  0  0  0
  187.3681  165.5303  134.3294 C   0  0  0  0  0  0  0  0  0  0  0  0
  1  2  1  6
  2  3  1  0
  2  4  1  0
  4  5  2  0
  5  6  1  0
  6  7  1  0
  7  8  1  0
  6  9  2  0
  9 10  1  0
 10 11  2  0
 11 12  1  0
 12 13  1  1
 13 14  1  0
 14 15  1  0
 15 16  1  0
 16 17  1  0
 17 18  2  0
 18 19  1  0
 19 20  1  6
 20 21  1  0
 19 22  1  0
 23 22  1  1
 23 24  1  0
 24 25  1  0
 25 26  2  0
 25 27  1  0
 27 28  1  0
 28 29  1  0
 29 30  1  0
 27 31  1  0
 31 32  2  0
 19 33  1  0
  9 34  1  0
 34 35  1  0
 36 35  1  1
 36 37  1  0
 37 38  1  0
 38 39  1  0
 39 40  1  0
 40 41  1  6
 40 42  1  0
 42 43  1  0
 40 44  1  0
 38 45  1  0
 45 46  1  0
 46 47  1  0
 47 48  2  0
 48 49  1  0
 49 50  1  0
 50 51  2  0
 51 52  1  0
 52 53  2  0
 53 54  1  0
 54 55  2  0
 34 56  1  6
 56 57  2  0
 56 58  1  0
 58 59  1  0
 12  1  1  0
 33 12  1  0
 48 34  1  0
 55 50  1  0
 23  1  1  0
 31 23  1  0
 44 36  1  0
 55 47  1  0
 11  4  1  0
 33 15  1  1
M  END
$$$$
