
     RDKit          3D

 59 68  0  0  0  0  0  0  0  0999 V2000
  202.3703  133.3391  134.4626 C   0  0  2  0  0  0  0  0  0  0  0  0
  202.8146  134.4640  135.2466 N   0  0  0  0  0  0  0  0  0  0  0  0
  202.0050  135.2126  136.1806 C   0  0  0  0  0  0  0  0  0  0  0  0
  204.1877  134.6852  134.9213 C   0  0  0  0  0  0  0  0  0  0  0  0
  205.0364  135.7643  135.2145 C   0  0  0  0  0  0  0  0  0  0  0  0
  206.3368  135.7634  134.7957 C   0  0  0  0  0  0  0  0  0  0  0  0
  207.1431  136.8608  135.1122 O   0  0  0  0  0  0  0  0  0  0  0  0
  206.8869  137.6494  136.2356 C   0  0  0  0  0  0  0  0  0  0  0  0
  206.8102  134.6888  134.0795 C   0  0  0  0  0  0  0  0  0  0  0  0
  205.9861  133.6583  133.8050 C   0  0  0  0  0  0  0  0  0  0  0  0
  204.6408  133.6108  134.2123 C   0  0  0  0  0  0  0  0  0  0  0  0
  203.5633  132.6096  134.0328 C   0  0  1  0  0  0  0  0  0  0  0  0
  203.8564  131.4682  134.9825 C   0  0  0  0  0  0  0  0  0  0  0  0
  204.6978  130.5788  134.1248 C   0  0  0  0  0  0  0  0  0  0  0  0
  204.5301  130.9754  132.7647 N   0  0  0  0  0  0  0  0  0  0  0  0
  204.2613  129.8169  131.9419 C   0  0  0  0  0  0  0  0  0  0  0  0
  202.8796  129.3267  132.1716 C   0  0  0  0  0  0  0  0  0  0  0  0
  201.9068  130.2140  132.2507 C   0  0  0  0  0  0  0  0  0  0  0  0
  202.2280  131.6588  132.1061 C   0  0  1  0  0  0  0  0  0  0  0  0
  202.1799  131.9016  130.5801 C   0  0  0  0  0  0  0  0  0  0  0  0
  201.1840  130.9208  130.0128 C   0  0  0  0  0  0  0  0  0  0  0  0
  201.0574  132.4407  132.6381 C   0  0  0  0  0  0  0  0  0  0  0  0
  201.4335  133.7102  133.3516 C   0  0  1  0  0  0  0  0  0  0  0  0
  200.2153  134.2348  133.8665 O   0  0  0  0  0  0  0  0  0  0  0  0
  199.6470  134.9831  132.8553 C   0  0  0  0  0  0  0  0  0  0  0  0
  198.4102  135.2856  132.7356 O   0  0  0  0  0  0  0  0  0  0  0  0
  200.6869  135.3695  131.9505 N   0  0  0  0  0  0  0  0  0  0  0  0
  200.5466  136.1697  130.7535 C   0  0  0  0  0  0  0  0  0  0  0  0
  200.4951  137.6506  131.0255 C   0  0  0  0  0  0  0  0  0  0  0  0
  201.5249  138.0686  132.4342 Cl  0  0  0  0  0  0  0  0  0  0  0  0
  201.8922  134.8012  132.4935 C   0  0  0  0  0  0  0  0  0  0  0  0
  203.0248  135.2574  132.1979 O   0  0  0  0  0  0  0  0  0  0  0  0
  203.5471  132.0118  132.6656 C   0  0  1  0  0  0  0  0  0  0  0  0
  208.2204  134.6779  133.7143 C   0  0  1  0  0  0  0  0  0  0  0  0
  209.1620  135.4361  134.5721 C   0  0  0  0  0  0  0  0  0  0  0  0
  209.5233  135.1378  135.9219 C   0  0  1  0  0  0  0  0  0  0  0  0
  209.0322  133.9802  136.6909 C   0  0  0  0  0  0  0  0  0  0  0  0
  209.5286  132.7832  136.1028 N   0  0  0  0  0  0  0  0  0  0  0  0
  210.8737  132.5937  136.4654 C   0  0  0  0  0  0  0  0  0  0  0  0
  211.6666  133.7595  135.9140 C   0  0  2  0  0  0  0  0  0  0  0  0
  212.0369  133.4435  134.6063 O   0  0  0  0  0  0  0  0  0  0  0  0
  212.9960  133.7826  136.6940 C   0  0  0  0  0  0  0  0  0  0  0  0
  212.7512  134.1642  138.1384 C   0  0  0  0  0  0  0  0  0  0  0  0
  211.0630  135.0967  136.0827 C   0  0  0  0  0  0  0  0  0  0  0  0
  208.5861  131.7271  136.3867 C   0  0  0  0  0  0  0  0  0  0  0  0
  207.6798  131.7782  135.1056 C   0  0  0  0  0  0  0  0  0  0  0  0
  208.5847  132.1512  133.9653 C   0  0  0  0  0  0  0  0  0  0  0  0
  208.8175  133.3449  133.4382 C   0  0  0  0  0  0  0  0  0  0  0  0
  209.7750  133.1686  132.4668 N   0  0  0  0  0  0  0  0  0  0  0  0
  210.1423  131.8857  132.3741 C   0  0  0  0  0  0  0  0  0  0  0  0
  211.0454  131.2188  131.5689 C   0  0  0  0  0  0  0  0  0  0  0  0
  211.2352  129.8523  131.6821 C   0  0  0  0  0  0  0  0  0  0  0  0
  210.4939  129.1755  132.6249 C   0  0  0  0  0  0  0  0  0  0  0  0
  209.5996  129.8563  133.4176 C   0  0  0  0  0  0  0  0  0  0  0  0
  209.4029  131.2299  133.3101 C   0  0  0  0  0  0  0  0  0  0  0  0
  208.1895  135.5346  132.4380 C   0  0  0  0  0  0  0  0  0  0  0  0
  208.9265  136.5221  132.3974 O   0  0  0  0  0  0  0  0  0  0  0  0
  207.3802  135.2174  131.3918 O   0  0  0  0  0  0  0  0  0  0  0  0
  206.3848  136.0918  130.8664 C   0  0  0  0  0  0  0  0  0  0  0  0
  1  2  1  6
  2  3  1  0
  2  4  1  0
  4  5  2  0
  5  6  1  0
  6  7  1  0
  7  8  1  0
  6  9  2  0
  9 10  1  0
 10 11  2  0
 11 12  1  0
 12 13  1  1
 13 14  1  0
 14 15  1  0
 15 16  1  0
 16 17  1  0
 17 18  2  0
 18 19  1  0
 19 20  1  6
 20 21  1  0
 19 22  1  0
 23 22  1  6
 23 24  1  0
 24 25  1  0
 25 26  2  0
 25 27  1  0
 27 28  1  0
 28 29  1  0
 29 30  1  0
 27 31  1  0
 31 32  2  0
 19 33  1  0
  9 34  1  0
 34 35  1  0
 36 35  1  6
 36 37  1  0
 37 38  1  0
 38 39  1  0
 39 40  1  0
 40 41  1  6
 40 42  1  0
 42 43  1  0
 40 44  1  0
 38 45  1  0
 45 46  1  0
 46 47  1  0
 47 48  2  0
 48 49  1  0
 49 50  1  0
 50 51  2  0
 51 52  1  0
 52 53  2  0
 53 54  1  0
 54 55  2  0
 34 56  1  6
 56 57  2  0
 56 58  1  0
 58 59  1  0
 12  1  1  0
 33 12  1  0
 48 34  1  0
 55 50  1  0
 23  1  1  0
 31 23  1  0
 44 36  1  0
 55 47  1  0
 11  4  1  0
 33 15  1  1
M  END
$$$$
