
     RDKit          3D

 56 62  0  0  0  0  0  0  0  0999 V2000
  167.2456  148.3576  125.4399 C   0  0  2  0  0  0  0  0  0  0  0  0
  167.1354  147.7208  124.0688 C   0  0  0  0  0  0  0  0  0  0  0  0
  168.3757  146.9299  123.7915 C   0  0  0  0  0  0  0  0  0  0  0  0
  168.8694  146.1323  124.9853 C   0  0  2  0  0  0  0  0  0  0  0  0
  167.6129  145.9973  125.8715 C   0  0  0  0  0  0  0  0  0  0  0  0
  167.5235  147.3939  126.5094 C   0  0  1  0  0  0  0  0  0  0  0  0
  168.9742  147.5004  126.9869 C   0  0  0  0  0  0  0  0  0  0  0  0
  169.7724  146.8723  125.8608 C   0  0  0  0  0  0  0  0  0  0  0  0
  171.0895  147.0643  125.8035 C   0  0  0  0  0  0  0  0  0  0  0  0
  166.5959  147.2571  127.6446 C   0  0  0  0  0  0  0  0  0  0  0  0
  165.5838  148.3351  127.8772 C   0  0  0  0  0  0  0  0  0  0  0  0
  166.0708  149.5708  127.1544 C   0  0  2  0  0  0  0  0  0  0  0  0
  165.5833  150.8538  127.6658 C   0  0  1  0  0  0  0  0  0  0  0  0
  166.2891  151.0505  129.0372 C   0  0  0  0  0  0  0  0  0  0  0  0
  166.1051  151.9906  126.7956 C   0  0  0  0  0  0  0  0  0  0  0  0
  166.9516  151.5315  125.6581 C   0  0  0  0  0  0  0  0  0  0  0  0
  166.1383  150.4960  124.8955 C   0  0  0  0  0  0  0  0  0  0  0  0
  166.0038  149.2356  125.7183 C   0  0  1  0  0  0  0  0  0  0  0  0
  164.7973  148.4813  125.2524 C   0  0  0  0  0  0  0  0  0  0  0  0
  164.1747  151.0523  127.9242 C   0  0  0  0  0  0  0  0  0  0  0  0
  163.6698  152.1951  127.9776 O   0  0  0  0  0  0  0  0  0  0  0  0
  163.3429  149.9756  128.1159 O   0  0  0  0  0  0  0  0  0  0  0  0
  162.1228  149.7842  127.4296 C   0  0  2  0  0  0  0  0  0  0  0  0
  162.0047  148.4541  127.1101 O   0  0  0  0  0  0  0  0  0  0  0  0
  160.7797  148.1603  126.5638 C   0  0  2  0  0  0  0  0  0  0  0  0
  160.8172  146.7272  126.0633 C   0  0  0  0  0  0  0  0  0  0  0  0
  160.8603  145.8623  127.1360 O   0  0  0  0  0  0  0  0  0  0  0  0
  160.4039  149.0827  125.4505 C   0  0  1  0  0  0  0  0  0  0  0  0
  159.4293  150.0043  125.8492 O   0  0  0  0  0  0  0  0  0  0  0  0
  161.6079  149.8490  124.9924 C   0  0  2  0  0  0  0  0  0  0  0  0
  162.5816  149.0166  124.4323 O   0  0  0  0  0  0  0  0  0  0  0  0
  162.2274  150.5928  126.1398 C   0  0  1  0  0  0  0  0  0  0  0  0
  161.7021  151.8752  126.2856 O   0  0  0  0  0  0  0  0  0  0  0  0
  169.1944  144.8475  124.6741 O   0  0  0  0  0  0  0  0  0  0  0  0
  170.2050  144.6319  123.7728 C   0  0  2  0  0  0  0  0  0  0  0  0
  169.5822  144.4909  122.5294 O   0  0  0  0  0  0  0  0  0  0  0  0
  169.6419  143.2435  121.9810 C   0  0  2  0  0  0  0  0  0  0  0  0
  168.5995  143.2190  120.8479 C   0  0  0  0  0  0  0  0  0  0  0  0
  168.5422  144.4453  120.1959 O   0  0  0  0  0  0  0  0  0  0  0  0
  169.2141  142.1816  122.9447 C   0  0  1  0  0  0  0  0  0  0  0  0
  169.3110  140.9266  122.3447 O   0  0  0  0  0  0  0  0  0  0  0  0
  169.8945  142.2576  124.2702 C   0  0  2  0  0  0  0  0  0  0  0  0
  168.9881  142.6289  125.2904 O   0  0  0  0  0  0  0  0  0  0  0  0
  170.9205  143.3671  124.2088 C   0  0  1  0  0  0  0  0  0  0  0  0
  171.9384  143.0099  123.3486 O   0  0  0  0  0  0  0  0  0  0  0  0
  173.0575  142.4789  123.9520 C   0  0  2  0  0  0  0  0  0  0  0  0
  173.2752  143.2369  125.1022 O   0  0  0  0  0  0  0  0  0  0  0  0
  174.1604  142.6859  125.9924 C   0  0  2  0  0  0  0  0  0  0  0  0
  174.3586  143.7360  127.0958 C   0  0  0  0  0  0  0  0  0  0  0  0
  174.2473  143.0779  128.3122 O   0  0  0  0  0  0  0  0  0  0  0  0
  175.4734  142.4216  125.3286 C   0  0  1  0  0  0  0  0  0  0  0  0
  175.7187  141.0509  125.2954 O   0  0  0  0  0  0  0  0  0  0  0  0
  175.5029  143.0121  123.9527 C   0  0  2  0  0  0  0  0  0  0  0  0
  175.6091  144.3820  123.9412 O   0  0  0  0  0  0  0  0  0  0  0  0
  174.3093  142.6011  123.1184 C   0  0  1  0  0  0  0  0  0  0  0  0
  174.5776  141.3330  122.6025 O   0  0  0  0  0  0  0  0  0  0  0  0
  1  2  1  6
  2  3  1  0
  3  4  1  0
  4  5  1  0
  5  6  1  0
  6  7  1  1
  7  8  1  0
  8  9  2  0
  6 10  1  0
 10 11  1  0
 12 11  1  1
 12 13  1  0
 13 14  1  1
 13 15  1  0
 15 16  1  0
 16 17  1  0
 17 18  1  0
 18 19  1  1
 13 20  1  0
 20 21  2  0
 20 22  1  0
 23 22  1  1
 23 24  1  0
 24 25  1  0
 25 26  1  6
 26 27  1  0
 25 28  1  0
 28 29  1  1
 28 30  1  0
 30 31  1  1
 30 32  1  0
 32 33  1  1
  4 34  1  6
 35 34  1  1
 35 36  1  0
 36 37  1  0
 37 38  1  6
 38 39  1  0
 37 40  1  0
 40 41  1  6
 40 42  1  0
 42 43  1  1
 42 44  1  0
 44 45  1  6
 46 45  1  6
 46 47  1  0
 47 48  1  0
 48 49  1  1
 49 50  1  0
 48 51  1  0
 51 52  1  6
 51 53  1  0
 53 54  1  1
 53 55  1  0
 55 56  1  1
  6  1  1  0
 18 12  1  0
 32 23  1  0
 44 35  1  0
 55 46  1  0
 18  1  1  0
  8  4  1  0
M  END
$$$$
