
     RDKit          3D

 56 62  0  0  0  0  0  0  0  0999 V2000
  130.3064  161.6659  153.7106 C   0  0  2  0  0  0  0  0  0  0  0  0
  129.0349  160.8909  153.9935 C   0  0  0  0  0  0  0  0  0  0  0  0
  128.6339  160.1361  152.7646 C   0  0  0  0  0  0  0  0  0  0  0  0
  129.7998  159.4859  152.0414 C   0  0  2  0  0  0  0  0  0  0  0  0
  130.8859  159.3806  153.1329 C   0  0  0  0  0  0  0  0  0  0  0  0
  131.4001  160.8280  153.2091 C   0  0  1  0  0  0  0  0  0  0  0  0
  131.6253  161.0504  151.7112 C   0  0  0  0  0  0  0  0  0  0  0  0
  130.4469  160.3517  151.0609 C   0  0  0  0  0  0  0  0  0  0  0  0
  130.1602  160.5992  149.7836 C   0  0  0  0  0  0  0  0  0  0  0  0
  132.6780  160.7614  153.9374 C   0  0  0  0  0  0  0  0  0  0  0  0
  132.9721  161.8080  154.9664 C   0  0  0  0  0  0  0  0  0  0  0  0
  132.0707  162.9871  154.6768 C   0  0  2  0  0  0  0  0  0  0  0  0
  132.5354  164.2901  155.1579 C   0  0  1  0  0  0  0  0  0  0  0  0
  133.7510  164.6560  154.2603 C   0  0  0  0  0  0  0  0  0  0  0  0
  131.4924  165.3578  154.8509 C   0  0  0  0  0  0  0  0  0  0  0  0
  130.2796  164.8282  154.1655 C   0  0  0  0  0  0  0  0  0  0  0  0
  129.7559  163.6843  155.0213 C   0  0  0  0  0  0  0  0  0  0  0  0
  130.7009  162.5074  154.9462 C   0  0  1  0  0  0  0  0  0  0  0  0
  130.5066  161.6540  156.1610 C   0  0  0  0  0  0  0  0  0  0  0  0
  132.9987  164.4464  156.5185 C   0  0  0  0  0  0  0  0  0  0  0  0
  132.7727  165.4859  157.1757 O   0  0  0  0  0  0  0  0  0  0  0  0
  133.7052  163.4412  157.1338 O   0  0  0  0  0  0  0  0  0  0  0  0
  135.0023  163.5982  157.6715 C   0  0  2  0  0  0  0  0  0  0  0  0
  135.8201  164.1147  156.6970 O   0  0  0  0  0  0  0  0  0  0  0  0
  137.0664  164.4285  157.1807 C   0  0  2  0  0  0  0  0  0  0  0  0
  137.9509  164.7975  156.0029 C   0  0  0  0  0  0  0  0  0  0  0  0
  137.2700  164.5771  154.8246 O   0  0  0  0  0  0  0  0  0  0  0  0
  137.6857  163.3130  157.9576 C   0  0  1  0  0  0  0  0  0  0  0  0
  137.6546  163.5621  159.3343 O   0  0  0  0  0  0  0  0  0  0  0  0
  136.9437  162.0363  157.6999 C   0  0  2  0  0  0  0  0  0  0  0  0
  137.0490  161.6244  156.3680 O   0  0  0  0  0  0  0  0  0  0  0  0
  135.4880  162.1967  158.0297 C   0  0  1  0  0  0  0  0  0  0  0  0
  135.2059  161.8712  159.3548 O   0  0  0  0  0  0  0  0  0  0  0  0
  129.5583  158.1934  151.6890 O   0  0  0  0  0  0  0  0  0  0  0  0
  128.2671  157.8247  151.4117 C   0  0  2  0  0  0  0  0  0  0  0  0
  127.6824  157.5289  152.6463 O   0  0  0  0  0  0  0  0  0  0  0  0
  127.3755  156.2158  152.8509 C   0  0  2  0  0  0  0  0  0  0  0  0
  127.1157  156.0627  154.3610 C   0  0  0  0  0  0  0  0  0  0  0  0
  128.2621  155.6416  155.0244 O   0  0  0  0  0  0  0  0  0  0  0  0
  128.5289  155.3120  152.5472 C   0  0  1  0  0  0  0  0  0  0  0  0
  128.1599  153.9831  152.7527 O   0  0  0  0  0  0  0  0  0  0  0  0
  129.1519  155.5535  151.2133 C   0  0  2  0  0  0  0  0  0  0  0  0
  130.4537  156.0898  151.3458 O   0  0  0  0  0  0  0  0  0  0  0  0
  128.3416  156.6134  150.5011 C   0  0  1  0  0  0  0  0  0  0  0  0
  127.0966  156.1102  150.1845 O   0  0  0  0  0  0  0  0  0  0  0  0
  126.6631  156.3792  148.9046 C   0  0  2  0  0  0  0  0  0  0  0  0
  126.4167  157.7510  148.8581 O   0  0  0  0  0  0  0  0  0  0  0  0
  126.2624  158.2628  147.5957 C   0  0  2  0  0  0  0  0  0  0  0  0
  125.8623  159.7341  147.7824 C   0  0  0  0  0  0  0  0  0  0  0  0
  125.6721  160.2706  146.5170 O   0  0  0  0  0  0  0  0  0  0  0  0
  125.1678  157.5475  146.8714 C   0  0  1  0  0  0  0  0  0  0  0  0
  125.6940  156.8588  145.7810 O   0  0  0  0  0  0  0  0  0  0  0  0
  124.4336  156.6243  147.7940 C   0  0  2  0  0  0  0  0  0  0  0  0
  123.6152  157.2717  148.6880 O   0  0  0  0  0  0  0  0  0  0  0  0
  125.3622  155.7007  148.5518 C   0  0  1  0  0  0  0  0  0  0  0  0
  125.6765  154.6379  147.7047 O   0  0  0  0  0  0  0  0  0  0  0  0
  1  2  1  1
  2  3  1  0
  3  4  1  0
  4  5  1  0
  5  6  1  0
  6  7  1  6
  7  8  1  0
  8  9  2  0
  6 10  1  0
 10 11  1  0
 12 11  1  1
 12 13  1  0
 13 14  1  6
 13 15  1  0
 15 16  1  0
 16 17  1  0
 17 18  1  0
 18 19  1  1
 13 20  1  0
 20 21  2  0
 20 22  1  0
 23 22  1  6
 23 24  1  0
 24 25  1  0
 25 26  1  6
 26 27  1  0
 25 28  1  0
 28 29  1  1
 28 30  1  0
 30 31  1  6
 30 32  1  0
 32 33  1  1
  4 34  1  6
 35 34  1  1
 35 36  1  0
 36 37  1  0
 37 38  1  1
 38 39  1  0
 37 40  1  0
 40 41  1  6
 40 42  1  0
 42 43  1  1
 42 44  1  0
 44 45  1  1
 46 45  1  1
 46 47  1  0
 47 48  1  0
 48 49  1  1
 49 50  1  0
 48 51  1  0
 51 52  1  6
 51 53  1  0
 53 54  1  1
 53 55  1  0
 55 56  1  6
  6  1  1  0
 18 12  1  0
 32 23  1  0
 44 35  1  0
 55 46  1  0
 18  1  1  0
  8  4  1  0
M  END
$$$$
