
     RDKit          3D

 56 62  0  0  0  0  0  0  0  0999 V2000
  169.1592  147.6521  126.3903 C   0  0  2  0  0  0  0  0  0  0  0  0
  170.6386  147.8989  126.1714 C   0  0  0  0  0  0  0  0  0  0  0  0
  171.3838  146.6122  126.3437 C   0  0  0  0  0  0  0  0  0  0  0  0
  170.6902  145.4174  125.7141 C   0  0  2  0  0  0  0  0  0  0  0  0
  169.7584  146.0560  124.6624 C   0  0  0  0  0  0  0  0  0  0  0  0
  168.6129  146.5918  125.5376 C   0  0  1  0  0  0  0  0  0  0  0  0
  168.3483  145.3162  126.3419 C   0  0  0  0  0  0  0  0  0  0  0  0
  169.7339  144.7545  126.5950 C   0  0  0  0  0  0  0  0  0  0  0  0
  169.9008  143.8112  127.5208 C   0  0  0  0  0  0  0  0  0  0  0  0
  167.5038  146.8804  124.6132 C   0  0  0  0  0  0  0  0  0  0  0  0
  166.7181  148.1396  124.8072 C   0  0  0  0  0  0  0  0  0  0  0  0
  166.9532  148.6003  126.2282 C   0  0  2  0  0  0  0  0  0  0  0  0
  165.9096  149.4433  126.8160 C   0  0  1  0  0  0  0  0  0  0  0  0
  164.6911  148.5034  127.0377 C   0  0  0  0  0  0  0  0  0  0  0  0
  166.3227  149.8783  128.2167 C   0  0  0  0  0  0  0  0  0  0  0  0
  167.6587  149.3644  128.6318 C   0  0  0  0  0  0  0  0  0  0  0  0
  168.6429  149.7720  127.5454 C   0  0  0  0  0  0  0  0  0  0  0  0
  168.3781  148.9822  126.2846 C   0  0  1  0  0  0  0  0  0  0  0  0
  168.9248  149.7412  125.1156 C   0  0  0  0  0  0  0  0  0  0  0  0
  165.3923  150.5821  126.0908 C   0  0  0  0  0  0  0  0  0  0  0  0
  165.6383  151.7557  126.4456 O   0  0  0  0  0  0  0  0  0  0  0  0
  164.6102  150.4014  124.9757 O   0  0  0  0  0  0  0  0  0  0  0  0
  163.2185  150.1605  125.0138 C   0  0  2  0  0  0  0  0  0  0  0  0
  162.7874  150.2920  126.3108 O   0  0  0  0  0  0  0  0  0  0  0  0
  161.4203  150.2109  126.4120 C   0  0  2  0  0  0  0  0  0  0  0  0
  161.0578  150.1647  127.8858 C   0  0  0  0  0  0  0  0  0  0  0  0
  161.4889  151.3181  128.5058 O   0  0  0  0  0  0  0  0  0  0  0  0
  160.8553  149.0211  125.7073 C   0  0  1  0  0  0  0  0  0  0  0  0
  160.2293  149.3794  124.5080 O   0  0  0  0  0  0  0  0  0  0  0  0
  161.9500  148.0484  125.3870 C   0  0  2  0  0  0  0  0  0  0  0  0
  162.5366  147.5162  126.5390 O   0  0  0  0  0  0  0  0  0  0  0  0
  163.0241  148.7121  124.5750 C   0  0  1  0  0  0  0  0  0  0  0  0
  162.7918  148.6103  123.2048 O   0  0  0  0  0  0  0  0  0  0  0  0
  171.5295  144.6353  124.9812 O   0  0  0  0  0  0  0  0  0  0  0  0
  172.8516  144.9913  124.9063 C   0  0  2  0  0  0  0  0  0  0  0  0
  172.9479  145.8714  123.8248 O   0  0  0  0  0  0  0  0  0  0  0  0
  173.6362  145.4016  122.7451 C   0  0  2  0  0  0  0  0  0  0  0  0
  173.2964  146.3413  121.5735 C   0  0  0  0  0  0  0  0  0  0  0  0
  172.0924  145.9824  120.9789 O   0  0  0  0  0  0  0  0  0  0  0  0
  173.1667  144.0450  122.3224 C   0  0  1  0  0  0  0  0  0  0  0  0
  173.9120  143.6017  121.2304 O   0  0  0  0  0  0  0  0  0  0  0  0
  173.1008  143.0536  123.4352 C   0  0  2  0  0  0  0  0  0  0  0  0
  171.7626  142.7046  123.7312 O   0  0  0  0  0  0  0  0  0  0  0  0
  173.6390  143.7135  124.6850 C   0  0  1  0  0  0  0  0  0  0  0  0
  174.9921  143.9421  124.5423 O   0  0  0  0  0  0  0  0  0  0  0  0
  175.8107  142.9617  125.0591 C   0  0  2  0  0  0  0  0  0  0  0  0
  175.6421  143.0044  126.4428 O   0  0  0  0  0  0  0  0  0  0  0  0
  176.1411  141.9184  127.1145 C   0  0  2  0  0  0  0  0  0  0  0  0
  175.9812  142.2360  128.6089 C   0  0  0  0  0  0  0  0  0  0  0  0
  174.6258  142.1722  128.8985 O   0  0  0  0  0  0  0  0  0  0  0  0
  177.5923  141.7347  126.8070 C   0  0  1  0  0  0  0  0  0  0  0  0
  177.7830  140.5338  126.1275 O   0  0  0  0  0  0  0  0  0  0  0  0
  178.1208  142.8940  126.0201 C   0  0  2  0  0  0  0  0  0  0  0  0
  178.2748  144.0409  126.7610 O   0  0  0  0  0  0  0  0  0  0  0  0
  177.2781  143.2013  124.8015 C   0  0  1  0  0  0  0  0  0  0  0  0
  177.6622  142.3157  123.7943 O   0  0  0  0  0  0  0  0  0  0  0  0
  1  2  1  6
  2  3  1  0
  3  4  1  0
  4  5  1  0
  5  6  1  0
  6  7  1  1
  7  8  1  0
  8  9  2  0
  6 10  1  0
 10 11  1  0
 12 11  1  6
 12 13  1  0
 13 14  1  1
 13 15  1  0
 15 16  1  0
 16 17  1  0
 17 18  1  0
 18 19  1  6
 13 20  1  0
 20 21  2  0
 20 22  1  0
 23 22  1  1
 23 24  1  0
 24 25  1  0
 25 26  1  1
 26 27  1  0
 25 28  1  0
 28 29  1  6
 28 30  1  0
 30 31  1  1
 30 32  1  0
 32 33  1  6
  4 34  1  6
 35 34  1  6
 35 36  1  0
 36 37  1  0
 37 38  1  6
 38 39  1  0
 37 40  1  0
 40 41  1  6
 40 42  1  0
 42 43  1  1
 42 44  1  0
 44 45  1  6
 46 45  1  6
 46 47  1  0
 47 48  1  0
 48 49  1  1
 49 50  1  0
 48 51  1  0
 51 52  1  6
 51 53  1  0
 53 54  1  1
 53 55  1  0
 55 56  1  6
  6  1  1  0
 18 12  1  0
 32 23  1  0
 44 35  1  0
 55 46  1  0
 18  1  1  0
  8  4  1  0
M  END
$$$$
