
     RDKit          3D

 56 62  0  0  0  0  0  0  0  0999 V2000
  190.3129  158.4783  127.6457 C   0  0  2  0  0  0  0  0  0  0  0  0
  191.2768  159.2312  126.7505 C   0  0  0  0  0  0  0  0  0  0  0  0
  191.0962  158.7740  125.3367 C   0  0  0  0  0  0  0  0  0  0  0  0
  189.6433  158.5879  124.9374 C   0  0  2  0  0  0  0  0  0  0  0  0
  188.8769  159.4612  125.9533 C   0  0  0  0  0  0  0  0  0  0  0  0
  188.9149  158.5849  127.2167 C   0  0  1  0  0  0  0  0  0  0  0  0
  188.4298  157.2791  126.5816 C   0  0  0  0  0  0  0  0  0  0  0  0
  189.1135  157.2596  125.2282 C   0  0  0  0  0  0  0  0  0  0  0  0
  189.1555  156.1255  124.5303 C   0  0  0  0  0  0  0  0  0  0  0  0
  187.9008  159.1467  128.1245 C   0  0  0  0  0  0  0  0  0  0  0  0
  188.2299  159.2681  129.5796 C   0  0  0  0  0  0  0  0  0  0  0  0
  189.3803  158.3273  129.8591 C   0  0  2  0  0  0  0  0  0  0  0  0
  189.5107  157.8573  131.2402 C   0  0  1  0  0  0  0  0  0  0  0  0
  188.3139  156.8906  131.4655 C   0  0  0  0  0  0  0  0  0  0  0  0
  190.7483  156.9784  131.3737 C   0  0  0  0  0  0  0  0  0  0  0  0
  191.5121  156.8257  130.1030 C   0  0  0  0  0  0  0  0  0  0  0  0
  191.8061  158.2299  129.5960 C   0  0  0  0  0  0  0  0  0  0  0  0
  190.5303  158.8861  129.1211 C   0  0  1  0  0  0  0  0  0  0  0  0
  190.7072  160.3722  129.1630 C   0  0  0  0  0  0  0  0  0  0  0  0
  189.4637  158.7936  132.3407 C   0  0  0  0  0  0  0  0  0  0  0  0
  189.0366  158.4632  133.4686 O   0  0  0  0  0  0  0  0  0  0  0  0
  189.8969  160.0869  132.1743 O   0  0  0  0  0  0  0  0  0  0  0  0
  189.4962  161.1685  132.9902 C   0  0  2  0  0  0  0  0  0  0  0  0
  188.4203  160.7716  133.7453 O   0  0  0  0  0  0  0  0  0  0  0  0
  188.0574  161.7217  134.6679 C   0  0  2  0  0  0  0  0  0  0  0  0
  186.7520  161.2839  135.3081 C   0  0  0  0  0  0  0  0  0  0  0  0
  186.9422  160.0980  135.9849 O   0  0  0  0  0  0  0  0  0  0  0  0
  187.9049  163.0825  134.0710 C   0  0  1  0  0  0  0  0  0  0  0  0
  188.9801  163.9154  134.4007 O   0  0  0  0  0  0  0  0  0  0  0  0
  187.8372  162.9814  132.5770 C   0  0  2  0  0  0  0  0  0  0  0  0
  186.7011  162.2901  132.1458 O   0  0  0  0  0  0  0  0  0  0  0  0
  189.0493  162.2764  132.0408 C   0  0  1  0  0  0  0  0  0  0  0  0
  190.0871  163.1576  131.7444 O   0  0  0  0  0  0  0  0  0  0  0  0
  189.3436  159.1433  123.7312 O   0  0  0  0  0  0  0  0  0  0  0  0
  190.3493  159.7563  123.0290 C   0  0  2  0  0  0  0  0  0  0  0  0
  190.6181  160.9467  123.7102 O   0  0  0  0  0  0  0  0  0  0  0  0
  190.2786  162.0907  123.0497 C   0  0  2  0  0  0  0  0  0  0  0  0
  190.2975  163.2177  124.0988 C   0  0  0  0  0  0  0  0  0  0  0  0
  189.8784  162.7516  125.3394 O   0  0  0  0  0  0  0  0  0  0  0  0
  188.8759  162.0479  122.5300 C   0  0  1  0  0  0  0  0  0  0  0  0
  188.5842  163.2286  121.8480 O   0  0  0  0  0  0  0  0  0  0  0  0
  188.5579  160.8185  121.7470 C   0  0  2  0  0  0  0  0  0  0  0  0
  187.6322  159.9992  122.4339 O   0  0  0  0  0  0  0  0  0  0  0  0
  189.8224  159.9977  121.6268 C   0  0  1  0  0  0  0  0  0  0  0  0
  190.7301  160.6594  120.8256 O   0  0  0  0  0  0  0  0  0  0  0  0
  191.4146  159.8636  119.9332 C   0  0  2  0  0  0  0  0  0  0  0  0
  191.4887  158.5995  120.5174 O   0  0  0  0  0  0  0  0  0  0  0  0
  191.8692  157.5956  119.6647 C   0  0  2  0  0  0  0  0  0  0  0  0
  192.0240  156.3388  120.5342 C   0  0  0  0  0  0  0  0  0  0  0  0
  191.6063  155.2584  119.7705 O   0  0  0  0  0  0  0  0  0  0  0  0
  193.1850  157.9170  119.0326 C   0  0  1  0  0  0  0  0  0  0  0  0
  193.0217  158.0824  117.6592 O   0  0  0  0  0  0  0  0  0  0  0  0
  193.7930  159.1344  119.6578 C   0  0  2  0  0  0  0  0  0  0  0  0
  194.2892  158.9180  120.9208 O   0  0  0  0  0  0  0  0  0  0  0  0
  192.8373  160.3069  119.6955 C   0  0  1  0  0  0  0  0  0  0  0  0
  192.8684  160.9113  118.4387 O   0  0  0  0  0  0  0  0  0  0  0  0
  1  2  1  6
  2  3  1  0
  3  4  1  0
  4  5  1  0
  5  6  1  0
  6  7  1  6
  7  8  1  0
  8  9  2  0
  6 10  1  0
 10 11  1  0
 12 11  1  1
 12 13  1  0
 13 14  1  1
 13 15  1  0
 15 16  1  0
 16 17  1  0
 17 18  1  0
 18 19  1  6
 13 20  1  0
 20 21  2  0
 20 22  1  0
 23 22  1  6
 23 24  1  0
 24 25  1  0
 25 26  1  6
 26 27  1  0
 25 28  1  0
 28 29  1  6
 28 30  1  0
 30 31  1  1
 30 32  1  0
 32 33  1  1
  4 34  1  6
 35 34  1  1
 35 36  1  0
 36 37  1  0
 37 38  1  1
 38 39  1  0
 37 40  1  0
 40 41  1  6
 40 42  1  0
 42 43  1  1
 42 44  1  0
 44 45  1  6
 46 45  1  1
 46 47  1  0
 47 48  1  0
 48 49  1  1
 49 50  1  0
 48 51  1  0
 51 52  1  6
 51 53  1  0
 53 54  1  1
 53 55  1  0
 55 56  1  6
  6  1  1  0
 18 12  1  0
 32 23  1  0
 44 35  1  0
 55 46  1  0
 18  1  1  0
  8  4  1  0
M  END
$$$$
