
     RDKit          3D

 56 62  0  0  0  0  0  0  0  0999 V2000
  126.5069  141.7231  135.5885 C   0  0  2  0  0  0  0  0  0  0  0  0
  125.6763  142.9064  135.1329 C   0  0  0  0  0  0  0  0  0  0  0  0
  125.8418  144.0296  136.1084 C   0  0  0  0  0  0  0  0  0  0  0  0
  127.2709  144.2166  136.5855 C   0  0  2  0  0  0  0  0  0  0  0  0
  128.1100  143.5425  135.4794 C   0  0  0  0  0  0  0  0  0  0  0  0
  127.9200  142.0508  135.8020 C   0  0  1  0  0  0  0  0  0  0  0  0
  128.2538  142.1143  137.2947 C   0  0  0  0  0  0  0  0  0  0  0  0
  127.6167  143.4119  137.7528 C   0  0  0  0  0  0  0  0  0  0  0  0
  127.4521  143.6383  139.0554 C   0  0  0  0  0  0  0  0  0  0  0  0
  128.9682  141.3415  135.0496 C   0  0  0  0  0  0  0  0  0  0  0  0
  128.6112  140.0666  134.3513 C   0  0  0  0  0  0  0  0  0  0  0  0
  127.3414  139.5473  134.9877 C   0  0  2  0  0  0  0  0  0  0  0  0
  127.1080  138.1052  134.8824 C   0  0  1  0  0  0  0  0  0  0  0  0
  128.1634  137.4438  135.8131 C   0  0  0  0  0  0  0  0  0  0  0  0
  125.7644  137.7508  135.5078 C   0  0  0  0  0  0  0  0  0  0  0  0
  125.0283  138.9285  136.0484 C   0  0  0  0  0  0  0  0  0  0  0  0
  124.9328  139.9431  134.9185 C   0  0  0  0  0  0  0  0  0  0  0  0
  126.2966  140.5273  134.6313 C   0  0  1  0  0  0  0  0  0  0  0  0
  126.3102  141.0557  133.2305 C   0  0  0  0  0  0  0  0  0  0  0  0
  127.2395  137.4323  133.6095 C   0  0  0  0  0  0  0  0  0  0  0  0
  126.4367  137.6339  132.6722 O   0  0  0  0  0  0  0  0  0  0  0  0
  128.2663  136.5455  133.3930 O   0  0  0  0  0  0  0  0  0  0  0  0
  128.9556  136.4146  132.1666 C   0  0  2  0  0  0  0  0  0  0  0  0
  128.7220  135.1578  131.6655 O   0  0  0  0  0  0  0  0  0  0  0  0
  129.2435  134.9984  130.4053 C   0  0  2  0  0  0  0  0  0  0  0  0
  129.1140  133.5348  130.0223 C   0  0  0  0  0  0  0  0  0  0  0  0
  127.7833  133.2143  129.8582 O   0  0  0  0  0  0  0  0  0  0  0  0
  130.6704  135.4296  130.3083 C   0  0  1  0  0  0  0  0  0  0  0  0
  130.7963  136.6558  129.6457 O   0  0  0  0  0  0  0  0  0  0  0  0
  131.2534  135.5818  131.6809 C   0  0  2  0  0  0  0  0  0  0  0  0
  131.3102  134.3655  132.3679 O   0  0  0  0  0  0  0  0  0  0  0  0
  130.4399  136.5453  132.4954 C   0  0  1  0  0  0  0  0  0  0  0  0
  130.8878  137.8584  132.3662 O   0  0  0  0  0  0  0  0  0  0  0  0
  127.6775  145.5156  136.5641 O   0  0  0  0  0  0  0  0  0  0  0  0
  127.4436  146.2523  135.4315 C   0  0  2  0  0  0  0  0  0  0  0  0
  128.5112  145.9780  134.5721 O   0  0  0  0  0  0  0  0  0  0  0  0
  129.3641  147.0179  134.3451 C   0  0  2  0  0  0  0  0  0  0  0  0
  130.6289  146.4093  133.7117 C   0  0  0  0  0  0  0  0  0  0  0  0
  130.6776  145.0353  133.9160 O   0  0  0  0  0  0  0  0  0  0  0  0
  129.8204  147.6622  135.6163 C   0  0  1  0  0  0  0  0  0  0  0  0
  130.6725  148.7284  135.3309 O   0  0  0  0  0  0  0  0  0  0  0  0
  128.7095  148.0246  136.5437 C   0  0  2  0  0  0  0  0  0  0  0  0
  128.7337  147.2238  137.7092 O   0  0  0  0  0  0  0  0  0  0  0  0
  127.4006  147.7084  135.8553 C   0  0  1  0  0  0  0  0  0  0  0  0
  127.2183  148.5659  134.7900 O   0  0  0  0  0  0  0  0  0  0  0  0
  126.2694  149.5463  134.9814 C   0  0  2  0  0  0  0  0  0  0  0  0
  125.4320  149.4994  133.8672 O   0  0  0  0  0  0  0  0  0  0  0  0
  124.2566  150.1917  134.0044 C   0  0  2  0  0  0  0  0  0  0  0  0
  123.5666  150.1283  132.6334 C   0  0  0  0  0  0  0  0  0  0  0  0
  123.1043  148.8307  132.4672 O   0  0  0  0  0  0  0  0  0  0  0  0
  124.5283  151.6207  134.3486 C   0  0  1  0  0  0  0  0  0  0  0  0
  124.0399  151.9010  135.6225 O   0  0  0  0  0  0  0  0  0  0  0  0
  125.9915  151.9235  134.2490 C   0  0  2  0  0  0  0  0  0  0  0  0
  126.4544  151.9961  132.9572 O   0  0  0  0  0  0  0  0  0  0  0  0
  126.8420  150.9418  135.0252 C   0  0  1  0  0  0  0  0  0  0  0  0
  126.8286  151.3432  136.3611 O   0  0  0  0  0  0  0  0  0  0  0  0
  1  2  1  6
  2  3  1  0
  3  4  1  0
  4  5  1  0
  5  6  1  0
  6  7  1  1
  7  8  1  0
  8  9  2  0
  6 10  1  0
 10 11  1  0
 12 11  1  6
 12 13  1  0
 13 14  1  1
 13 15  1  0
 15 16  1  0
 16 17  1  0
 17 18  1  0
 18 19  1  6
 13 20  1  0
 20 21  2  0
 20 22  1  0
 23 22  1  1
 23 24  1  0
 24 25  1  0
 25 26  1  1
 26 27  1  0
 25 28  1  0
 28 29  1  1
 28 30  1  0
 30 31  1  1
 30 32  1  0
 32 33  1  6
  4 34  1  1
 35 34  1  1
 35 36  1  0
 36 37  1  0
 37 38  1  1
 38 39  1  0
 37 40  1  0
 40 41  1  6
 40 42  1  0
 42 43  1  1
 42 44  1  0
 44 45  1  6
 46 45  1  6
 46 47  1  0
 47 48  1  0
 48 49  1  6
 49 50  1  0
 48 51  1  0
 51 52  1  1
 51 53  1  0
 53 54  1  6
 53 55  1  0
 55 56  1  1
  6  1  1  0
 18 12  1  0
 32 23  1  0
 44 35  1  0
 55 46  1  0
 18  1  1  0
  8  4  1  0
M  END
$$$$
