
     RDKit          3D

 56 62  0  0  0  0  0  0  0  0999 V2000
  117.3944  146.7146  160.1248 C   0  0  2  0  0  0  0  0  0  0  0  0
  117.3302  147.5573  158.8665 C   0  0  0  0  0  0  0  0  0  0  0  0
  117.5467  146.6794  157.6736 C   0  0  0  0  0  0  0  0  0  0  0  0
  116.8238  145.3470  157.7585 C   0  0  2  0  0  0  0  0  0  0  0  0
  115.6991  145.6130  158.7814 C   0  0  0  0  0  0  0  0  0  0  0  0
  116.4674  145.5787  160.1133 C   0  0  1  0  0  0  0  0  0  0  0  0
  117.2119  144.2592  159.8927 C   0  0  0  0  0  0  0  0  0  0  0  0
  117.5893  144.2982  158.4245 C   0  0  0  0  0  0  0  0  0  0  0  0
  118.5054  143.4499  157.9596 C   0  0  0  0  0  0  0  0  0  0  0  0
  115.4436  145.4457  161.1631 C   0  0  0  0  0  0  0  0  0  0  0  0
  115.5867  146.2594  162.4112 C   0  0  0  0  0  0  0  0  0  0  0  0
  117.0343  146.6869  162.5041 C   0  0  2  0  0  0  0  0  0  0  0  0
  117.5339  146.9918  163.8467 C   0  0  1  0  0  0  0  0  0  0  0  0
  117.6112  145.6243  164.5825 C   0  0  0  0  0  0  0  0  0  0  0  0
  118.9785  147.4698  163.7658 C   0  0  0  0  0  0  0  0  0  0  0  0
  119.5132  147.5220  162.3757 C   0  0  0  0  0  0  0  0  0  0  0  0
  118.5402  148.3626  161.5622 C   0  0  0  0  0  0  0  0  0  0  0  0
  117.2415  147.6133  161.3735 C   0  0  1  0  0  0  0  0  0  0  0  0
  116.1507  148.6003  161.0952 C   0  0  0  0  0  0  0  0  0  0  0  0
  116.7868  147.8624  164.7266 C   0  0  0  0  0  0  0  0  0  0  0  0
  115.8249  147.4431  165.4066 O   0  0  0  0  0  0  0  0  0  0  0  0
  117.1221  149.1898  164.8428 O   0  0  0  0  0  0  0  0  0  0  0  0
  118.0088  149.7013  165.8167 C   0  0  2  0  0  0  0  0  0  0  0  0
  118.2336  148.7274  166.7581 O   0  0  0  0  0  0  0  0  0  0  0  0
  119.1956  149.0974  167.6654 C   0  0  2  0  0  0  0  0  0  0  0  0
  119.2293  148.0554  168.7692 C   0  0  0  0  0  0  0  0  0  0  0  0
  117.9431  147.6730  169.0855 O   0  0  0  0  0  0  0  0  0  0  0  0
  118.9554  150.4525  168.2464 C   0  0  1  0  0  0  0  0  0  0  0  0
  119.8271  151.4070  167.7102 O   0  0  0  0  0  0  0  0  0  0  0  0
  117.5516  150.8917  167.9576 C   0  0  2  0  0  0  0  0  0  0  0  0
  116.6043  150.0779  168.5860 O   0  0  0  0  0  0  0  0  0  0  0  0
  117.2857  150.8697  166.4803 C   0  0  1  0  0  0  0  0  0  0  0  0
  117.5895  152.0844  165.8690 O   0  0  0  0  0  0  0  0  0  0  0  0
  116.1608  145.0231  156.6144 O   0  0  0  0  0  0  0  0  0  0  0  0
  114.8055  145.2252  156.5682 C   0  0  2  0  0  0  0  0  0  0  0  0
  114.2410  144.1937  157.3239 O   0  0  0  0  0  0  0  0  0  0  0  0
  113.5205  143.2754  156.6182 C   0  0  2  0  0  0  0  0  0  0  0  0
  113.3282  142.0664  157.5522 C   0  0  0  0  0  0  0  0  0  0  0  0
  114.3533  141.1419  157.3893 O   0  0  0  0  0  0  0  0  0  0  0  0
  114.2741  142.7543  155.4350 C   0  0  1  0  0  0  0  0  0  0  0  0
  113.4901  141.8361  154.7375 O   0  0  0  0  0  0  0  0  0  0  0  0
  114.8491  143.8218  154.5658 C   0  0  2  0  0  0  0  0  0  0  0  0
  116.2616  143.8328  154.6352 O   0  0  0  0  0  0  0  0  0  0  0  0
  114.4010  145.1609  155.1073 C   0  0  1  0  0  0  0  0  0  0  0  0
  113.0405  145.3020  154.9267 O   0  0  0  0  0  0  0  0  0  0  0  0
  112.4975  146.4601  155.4389 C   0  0  2  0  0  0  0  0  0  0  0  0
  111.1135  146.3117  155.3524 O   0  0  0  0  0  0  0  0  0  0  0  0
  110.3930  147.2247  156.0782 C   0  0  2  0  0  0  0  0  0  0  0  0
  108.9184  146.9728  155.7290 C   0  0  0  0  0  0  0  0  0  0  0  0
  108.2324  148.1539  155.9725 O   0  0  0  0  0  0  0  0  0  0  0  0
  110.7586  148.6174  155.6772 C   0  0  1  0  0  0  0  0  0  0  0  0
  111.3608  149.2746  156.7475 O   0  0  0  0  0  0  0  0  0  0  0  0
  111.6502  148.6085  154.4741 C   0  0  2  0  0  0  0  0  0  0  0  0
  111.0000  148.2887  153.3066 O   0  0  0  0  0  0  0  0  0  0  0  0
  112.8439  147.6941  154.6425 C   0  0  1  0  0  0  0  0  0  0  0  0
  113.8043  148.3922  155.3749 O   0  0  0  0  0  0  0  0  0  0  0  0
  1  2  1  6
  2  3  1  0
  3  4  1  0
  4  5  1  0
  5  6  1  0
  6  7  1  6
  7  8  1  0
  8  9  2  0
  6 10  1  0
 10 11  1  0
 12 11  1  1
 12 13  1  0
 13 14  1  1
 13 15  1  0
 15 16  1  0
 16 17  1  0
 17 18  1  0
 18 19  1  6
 13 20  1  0
 20 21  2  0
 20 22  1  0
 23 22  1  6
 23 24  1  0
 24 25  1  0
 25 26  1  1
 26 27  1  0
 25 28  1  0
 28 29  1  6
 28 30  1  0
 30 31  1  1
 30 32  1  0
 32 33  1  6
  4 34  1  6
 35 34  1  6
 35 36  1  0
 36 37  1  0
 37 38  1  1
 38 39  1  0
 37 40  1  0
 40 41  1  6
 40 42  1  0
 42 43  1  1
 42 44  1  0
 44 45  1  1
 46 45  1  6
 46 47  1  0
 47 48  1  0
 48 49  1  6
 49 50  1  0
 48 51  1  0
 51 52  1  1
 51 53  1  0
 53 54  1  6
 53 55  1  0
 55 56  1  1
  6  1  1  0
 18 12  1  0
 32 23  1  0
 44 35  1  0
 55 46  1  0
 18  1  1  0
  8  4  1  0
M  END
$$$$
