
     RDKit          3D

 56 62  0  0  0  0  0  0  0  0999 V2000
  147.1712  167.6799  128.6597 C   0  0  2  0  0  0  0  0  0  0  0  0
  147.4399  169.1715  128.6835 C   0  0  0  0  0  0  0  0  0  0  0  0
  146.8673  169.7556  129.9372 C   0  0  0  0  0  0  0  0  0  0  0  0
  147.1011  168.9005  131.1698 C   0  0  2  0  0  0  0  0  0  0  0  0
  148.3094  168.0250  130.7757 C   0  0  0  0  0  0  0  0  0  0  0  0
  147.6572  166.9811  129.8535 C   0  0  1  0  0  0  0  0  0  0  0  0
  146.4986  166.5837  130.7720 C   0  0  0  0  0  0  0  0  0  0  0  0
  146.0681  167.8955  131.3992 C   0  0  0  0  0  0  0  0  0  0  0  0
  144.8928  167.9708  132.0220 C   0  0  0  0  0  0  0  0  0  0  0  0
  148.6375  165.8899  129.7271 C   0  0  0  0  0  0  0  0  0  0  0  0
  148.8540  165.2731  128.3806 C   0  0  0  0  0  0  0  0  0  0  0  0
  147.6446  165.6053  127.5357 C   0  0  2  0  0  0  0  0  0  0  0  0
  147.3600  164.6925  126.4262 C   0  0  1  0  0  0  0  0  0  0  0  0
  146.8699  163.3735  127.0877 C   0  0  0  0  0  0  0  0  0  0  0  0
  146.1599  165.1974  125.6345 C   0  0  0  0  0  0  0  0  0  0  0  0
  145.5909  166.4707  126.1601 C   0  0  0  0  0  0  0  0  0  0  0  0
  146.7393  167.4656  126.2384 C   0  0  0  0  0  0  0  0  0  0  0  0
  147.6944  167.0677  127.3399 C   0  0  1  0  0  0  0  0  0  0  0  0
  149.0355  167.6700  127.0571 C   0  0  0  0  0  0  0  0  0  0  0  0
  148.4093  164.2998  125.5124 C   0  0  0  0  0  0  0  0  0  0  0  0
  148.1866  164.1091  124.2969 O   0  0  0  0  0  0  0  0  0  0  0  0
  149.6964  164.1280  125.9618 O   0  0  0  0  0  0  0  0  0  0  0  0
  150.4740  162.9739  125.7177 C   0  0  2  0  0  0  0  0  0  0  0  0
  149.6394  161.8843  125.6794 O   0  0  0  0  0  0  0  0  0  0  0  0
  150.3002  160.7395  125.3073 C   0  0  2  0  0  0  0  0  0  0  0  0
  149.3524  159.5672  125.4878 C   0  0  0  0  0  0  0  0  0  0  0  0
  148.2072  159.9909  126.1277 O   0  0  0  0  0  0  0  0  0  0  0  0
  151.5526  160.5117  126.0891 C   0  0  1  0  0  0  0  0  0  0  0  0
  152.6941  160.8004  125.3328 O   0  0  0  0  0  0  0  0  0  0  0  0
  151.5652  161.3910  127.3030 C   0  0  2  0  0  0  0  0  0  0  0  0
  150.5406  161.0695  128.1981 O   0  0  0  0  0  0  0  0  0  0  0  0
  151.4137  162.8323  126.9115 C   0  0  1  0  0  0  0  0  0  0  0  0
  152.6411  163.4515  126.6838 O   0  0  0  0  0  0  0  0  0  0  0  0
  147.5447  169.6141  132.2409 O   0  0  0  0  0  0  0  0  0  0  0  0
  147.5899  170.9807  132.1389 C   0  0  2  0  0  0  0  0  0  0  0  0
  148.7916  171.2741  131.4881 O   0  0  0  0  0  0  0  0  0  0  0  0
  149.7332  171.9023  132.2491 C   0  0  2  0  0  0  0  0  0  0  0  0
  151.0618  171.7813  131.4801 C   0  0  0  0  0  0  0  0  0  0  0  0
  152.1470  171.9932  132.3224 O   0  0  0  0  0  0  0  0  0  0  0  0
  149.9593  171.2079  133.5552 C   0  0  1  0  0  0  0  0  0  0  0  0
  150.9135  171.8975  134.3026 O   0  0  0  0  0  0  0  0  0  0  0  0
  148.7067  170.9230  134.3138 C   0  0  2  0  0  0  0  0  0  0  0  0
  148.4460  169.5340  134.3683 O   0  0  0  0  0  0  0  0  0  0  0  0
  147.5485  171.5287  133.5531 C   0  0  1  0  0  0  0  0  0  0  0  0
  147.6377  172.9049  133.5917 O   0  0  0  0  0  0  0  0  0  0  0  0
  146.5881  173.5438  134.2149 C   0  0  2  0  0  0  0  0  0  0  0  0
  145.4263  172.9342  133.7422 O   0  0  0  0  0  0  0  0  0  0  0  0
  144.2946  173.2243  134.4596 C   0  0  2  0  0  0  0  0  0  0  0  0
  143.1311  172.5778  133.6927 C   0  0  0  0  0  0  0  0  0  0  0  0
  143.2256  171.2069  133.8846 O   0  0  0  0  0  0  0  0  0  0  0  0
  144.0781  174.7021  134.5200 C   0  0  1  0  0  0  0  0  0  0  0  0
  144.1923  175.1430  135.8363 O   0  0  0  0  0  0  0  0  0  0  0  0
  145.0390  175.4182  133.6220 C   0  0  2  0  0  0  0  0  0  0  0  0
  144.7504  175.2851  132.2851 O   0  0  0  0  0  0  0  0  0  0  0  0
  146.4752  175.0066  133.8618 C   0  0  1  0  0  0  0  0  0  0  0  0
  146.9369  175.7260  134.9643 O   0  0  0  0  0  0  0  0  0  0  0  0
  1  2  1  1
  2  3  1  0
  3  4  1  0
  4  5  1  0
  5  6  1  0
  6  7  1  1
  7  8  1  0
  8  9  2  0
  6 10  1  0
 10 11  1  0
 12 11  1  6
 12 13  1  0
 13 14  1  1
 13 15  1  0
 15 16  1  0
 16 17  1  0
 17 18  1  0
 18 19  1  6
 13 20  1  0
 20 21  2  0
 20 22  1  0
 23 22  1  1
 23 24  1  0
 24 25  1  0
 25 26  1  1
 26 27  1  0
 25 28  1  0
 28 29  1  6
 28 30  1  0
 30 31  1  1
 30 32  1  0
 32 33  1  6
  4 34  1  1
 35 34  1  1
 35 36  1  0
 36 37  1  0
 37 38  1  6
 38 39  1  0
 37 40  1  0
 40 41  1  1
 40 42  1  0
 42 43  1  6
 42 44  1  0
 44 45  1  6
 46 45  1  6
 46 47  1  0
 47 48  1  0
 48 49  1  6
 49 50  1  0
 48 51  1  0
 51 52  1  1
 51 53  1  0
 53 54  1  6
 53 55  1  0
 55 56  1  1
  6  1  1  0
 18 12  1  0
 32 23  1  0
 44 35  1  0
 55 46  1  0
 18  1  1  0
  8  4  1  0
M  END
$$$$
