
     RDKit          3D

 56 62  0  0  0  0  0  0  0  0999 V2000
  164.8931  150.0417  127.2307 C   0  0  2  0  0  0  0  0  0  0  0  0
  166.0520  151.0177  127.1851 C   0  0  0  0  0  0  0  0  0  0  0  0
  166.3161  151.5342  128.5649 C   0  0  0  0  0  0  0  0  0  0  0  0
  166.2371  150.4660  129.6409 C   0  0  2  0  0  0  0  0  0  0  0  0
  166.4573  149.1530  128.8604 C   0  0  0  0  0  0  0  0  0  0  0  0
  165.0884  148.9496  128.1894 C   0  0  1  0  0  0  0  0  0  0  0  0
  164.2147  149.1412  129.4319 C   0  0  0  0  0  0  0  0  0  0  0  0
  164.8967  150.2681  130.1832 C   0  0  0  0  0  0  0  0  0  0  0  0
  164.2423  150.8975  131.1582 C   0  0  0  0  0  0  0  0  0  0  0  0
  165.0697  147.5497  127.7336 C   0  0  0  0  0  0  0  0  0  0  0  0
  164.5031  147.2433  126.3825 C   0  0  0  0  0  0  0  0  0  0  0  0
  163.6315  148.4137  125.9859 C   0  0  2  0  0  0  0  0  0  0  0  0
  162.5684  148.1303  125.0191 C   0  0  1  0  0  0  0  0  0  0  0  0
  161.5263  147.2690  125.7871 C   0  0  0  0  0  0  0  0  0  0  0  0
  161.8274  149.4158  124.6721 C   0  0  0  0  0  0  0  0  0  0  0  0
  162.3592  150.6191  125.3723 C   0  0  0  0  0  0  0  0  0  0  0  0
  163.8520  150.6717  125.0827 C   0  0  0  0  0  0  0  0  0  0  0  0
  164.5590  149.5478  125.8043 C   0  0  1  0  0  0  0  0  0  0  0  0
  165.8518  149.2628  125.1050 C   0  0  0  0  0  0  0  0  0  0  0  0
  162.8566  147.3979  123.8064 C   0  0  0  0  0  0  0  0  0  0  0  0
  161.9594  147.1015  122.9872 O   0  0  0  0  0  0  0  0  0  0  0  0
  164.1417  147.0072  123.5170 O   0  0  0  0  0  0  0  0  0  0  0  0
  164.5262  145.6716  123.2628 C   0  0  2  0  0  0  0  0  0  0  0  0
  163.5405  144.8366  123.7282 O   0  0  0  0  0  0  0  0  0  0  0  0
  163.7731  143.5253  123.3937 C   0  0  2  0  0  0  0  0  0  0  0  0
  162.7505  142.6654  124.1152 C   0  0  0  0  0  0  0  0  0  0  0  0
  162.1776  143.3878  125.1402 O   0  0  0  0  0  0  0  0  0  0  0  0
  165.1555  143.0748  123.7365 C   0  0  1  0  0  0  0  0  0  0  0  0
  165.9626  142.9705  122.5982 O   0  0  0  0  0  0  0  0  0  0  0  0
  165.7962  144.0556  124.6717 C   0  0  2  0  0  0  0  0  0  0  0  0
  165.1405  144.1145  125.9050 O   0  0  0  0  0  0  0  0  0  0  0  0
  165.7971  145.4320  124.0725 C   0  0  1  0  0  0  0  0  0  0  0  0
  166.9456  145.6838  123.3247 O   0  0  0  0  0  0  0  0  0  0  0  0
  167.2785  150.5092  130.5166 O   0  0  0  0  0  0  0  0  0  0  0  0
  168.4691  149.9426  130.1403 C   0  0  2  0  0  0  0  0  0  0  0  0
  168.2677  148.5606  130.1978 O   0  0  0  0  0  0  0  0  0  0  0  0
  168.9575  147.9070  131.1762 C   0  0  2  0  0  0  0  0  0  0  0  0
  168.3124  146.5146  131.3036 C   0  0  0  0  0  0  0  0  0  0  0  0
  168.7672  145.8560  132.4400 O   0  0  0  0  0  0  0  0  0  0  0  0
  168.7879  148.5534  132.5152 C   0  0  1  0  0  0  0  0  0  0  0  0
  169.5257  147.8616  133.4751 O   0  0  0  0  0  0  0  0  0  0  0  0
  169.0475  150.0225  132.5152 C   0  0  2  0  0  0  0  0  0  0  0  0
  167.8576  150.7526  132.7414 O   0  0  0  0  0  0  0  0  0  0  0  0
  169.5146  150.4171  131.1320 C   0  0  1  0  0  0  0  0  0  0  0  0
  170.7598  149.8740  130.8909 O   0  0  0  0  0  0  0  0  0  0  0  0
  171.6538  149.9694  131.9350 C   0  0  2  0  0  0  0  0  0  0  0  0
  172.3797  151.1404  131.7190 O   0  0  0  0  0  0  0  0  0  0  0  0
  173.1120  151.5675  132.7965 C   0  0  2  0  0  0  0  0  0  0  0  0
  173.9318  152.7683  132.3009 C   0  0  0  0  0  0  0  0  0  0  0  0
  174.0883  153.6296  133.3773 O   0  0  0  0  0  0  0  0  0  0  0  0
  174.0462  150.4935  133.2528 C   0  0  1  0  0  0  0  0  0  0  0  0
  173.6942  150.0737  134.5334 O   0  0  0  0  0  0  0  0  0  0  0  0
  174.0525  149.3480  132.2883 C   0  0  2  0  0  0  0  0  0  0  0  0
  174.7089  149.6194  131.1119 O   0  0  0  0  0  0  0  0  0  0  0  0
  172.6602  148.8457  131.9738 C   0  0  1  0  0  0  0  0  0  0  0  0
  172.2786  147.9962  133.0124 O   0  0  0  0  0  0  0  0  0  0  0  0
  1  2  1  6
  2  3  1  0
  3  4  1  0
  4  5  1  0
  5  6  1  0
  6  7  1  1
  7  8  1  0
  8  9  2  0
  6 10  1  0
 10 11  1  0
 12 11  1  6
 12 13  1  0
 13 14  1  1
 13 15  1  0
 15 16  1  0
 16 17  1  0
 17 18  1  0
 18 19  1  6
 13 20  1  0
 20 21  2  0
 20 22  1  0
 23 22  1  1
 23 24  1  0
 24 25  1  0
 25 26  1  1
 26 27  1  0
 25 28  1  0
 28 29  1  6
 28 30  1  0
 30 31  1  1
 30 32  1  0
 32 33  1  6
  4 34  1  1
 35 34  1  1
 35 36  1  0
 36 37  1  0
 37 38  1  1
 38 39  1  0
 37 40  1  0
 40 41  1  1
 40 42  1  0
 42 43  1  6
 42 44  1  0
 44 45  1  6
 46 45  1  6
 46 47  1  0
 47 48  1  0
 48 49  1  6
 49 50  1  0
 48 51  1  0
 51 52  1  1
 51 53  1  0
 53 54  1  6
 53 55  1  0
 55 56  1  1
  6  1  1  0
 18 12  1  0
 32 23  1  0
 44 35  1  0
 55 46  1  0
 18  1  1  0
  8  4  1  0
M  END
$$$$
