
     RDKit          3D

 56 62  0  0  0  0  0  0  0  0999 V2000
  132.8484  163.6521  155.4177 C   0  0  2  0  0  0  0  0  0  0  0  0
  134.0396  164.2322  154.6814 C   0  0  0  0  0  0  0  0  0  0  0  0
  135.2200  164.2643  155.6013 C   0  0  0  0  0  0  0  0  0  0  0  0
  135.3617  163.0164  156.4545 C   0  0  2  0  0  0  0  0  0  0  0  0
  134.5634  161.9530  155.6708 C   0  0  0  0  0  0  0  0  0  0  0  0
  133.1120  162.3353  156.0063 C   0  0  1  0  0  0  0  0  0  0  0  0
  133.2653  162.4295  157.5266 C   0  0  0  0  0  0  0  0  0  0  0  0
  134.6261  163.0719  157.7136 C   0  0  0  0  0  0  0  0  0  0  0  0
  134.9555  163.5779  158.9013 C   0  0  0  0  0  0  0  0  0  0  0  0
  132.2928  161.1736  155.6227 C   0  0  0  0  0  0  0  0  0  0  0  0
  130.9922  161.4136  154.9218 C   0  0  0  0  0  0  0  0  0  0  0  0
  130.5918  162.8455  155.1978 C   0  0  2  0  0  0  0  0  0  0  0  0
  129.1610  163.1457  155.1086 C   0  0  1  0  0  0  0  0  0  0  0  0
  128.5115  162.4453  156.3355 C   0  0  0  0  0  0  0  0  0  0  0  0
  128.9281  164.6331  155.3442 C   0  0  0  0  0  0  0  0  0  0  0  0
  130.1810  165.4023  155.5885 C   0  0  0  0  0  0  0  0  0  0  0  0
  131.1144  165.1022  154.4250 C   0  0  0  0  0  0  0  0  0  0  0  0
  131.5997  163.6733  154.5063 C   0  0  1  0  0  0  0  0  0  0  0  0
  132.0232  163.2288  153.1409 C   0  0  0  0  0  0  0  0  0  0  0  0
  128.3911  162.7128  153.9641 C   0  0  0  0  0  0  0  0  0  0  0  0
  128.6259  163.1403  152.8127 O   0  0  0  0  0  0  0  0  0  0  0  0
  127.3705  161.8051  154.1138 O   0  0  0  0  0  0  0  0  0  0  0  0
  127.5336  160.4052  154.0140 C   0  0  2  0  0  0  0  0  0  0  0  0
  128.6443  160.0418  154.7348 O   0  0  0  0  0  0  0  0  0  0  0  0
  128.7925  158.6784  154.8040 C   0  0  2  0  0  0  0  0  0  0  0  0
  130.1394  158.3815  155.4391 C   0  0  0  0  0  0  0  0  0  0  0  0
  130.0014  158.3145  156.8091 O   0  0  0  0  0  0  0  0  0  0  0  0
  128.6977  158.0153  153.4688 C   0  0  1  0  0  0  0  0  0  0  0  0
  127.4741  157.3566  153.3042 O   0  0  0  0  0  0  0  0  0  0  0  0
  128.8249  159.0374  152.3796 C   0  0  2  0  0  0  0  0  0  0  0  0
  130.0841  159.6449  152.3706 O   0  0  0  0  0  0  0  0  0  0  0  0
  127.7859  160.1092  152.5385 C   0  0  1  0  0  0  0  0  0  0  0  0
  126.6069  159.8092  151.8590 O   0  0  0  0  0  0  0  0  0  0  0  0
  136.6312  162.5255  156.4793 O   0  0  0  0  0  0  0  0  0  0  0  0
  137.6456  163.3635  156.8650 C   0  0  2  0  0  0  0  0  0  0  0  0
  138.1146  163.9588  155.6906 O   0  0  0  0  0  0  0  0  0  0  0  0
  139.3724  163.5943  155.3094 C   0  0  2  0  0  0  0  0  0  0  0  0
  139.5287  164.0465  153.8457 C   0  0  0  0  0  0  0  0  0  0  0  0
  139.2402  163.0074  152.9688 O   0  0  0  0  0  0  0  0  0  0  0  0
  139.5494  162.1084  155.2928 C   0  0  1  0  0  0  0  0  0  0  0  0
  140.8533  161.7881  154.9166 O   0  0  0  0  0  0  0  0  0  0  0  0
  139.1136  161.4330  156.5496 C   0  0  2  0  0  0  0  0  0  0  0  0
  137.9622  160.6410  156.3323 O   0  0  0  0  0  0  0  0  0  0  0  0
  138.6973  162.5005  157.5367 C   0  0  1  0  0  0  0  0  0  0  0  0
  139.8040  163.2236  157.9314 O   0  0  0  0  0  0  0  0  0  0  0  0
  140.1405  163.1021  159.2619 C   0  0  2  0  0  0  0  0  0  0  0  0
  138.9420  163.1604  159.9726 O   0  0  0  0  0  0  0  0  0  0  0  0
  139.0323  162.7628  161.2816 C   0  0  2  0  0  0  0  0  0  0  0  0
  137.6553  163.0405  161.9033 C   0  0  0  0  0  0  0  0  0  0  0  0
  137.5491  162.2453  163.0353 O   0  0  0  0  0  0  0  0  0  0  0  0
  140.0648  163.5679  162.0027 C   0  0  1  0  0  0  0  0  0  0  0  0
  141.1145  162.7432  162.4001 O   0  0  0  0  0  0  0  0  0  0  0  0
  140.5539  164.6955  161.1473 C   0  0  2  0  0  0  0  0  0  0  0  0
  139.6461  165.7176  161.0077 O   0  0  0  0  0  0  0  0  0  0  0  0
  140.9954  164.2346  159.7753 C   0  0  1  0  0  0  0  0  0  0  0  0
  142.2932  163.7383  159.8994 O   0  0  0  0  0  0  0  0  0  0  0  0
  1  2  1  6
  2  3  1  0
  3  4  1  0
  4  5  1  0
  5  6  1  0
  6  7  1  1
  7  8  1  0
  8  9  2  0
  6 10  1  0
 10 11  1  0
 12 11  1  6
 12 13  1  0
 13 14  1  1
 13 15  1  0
 15 16  1  0
 16 17  1  0
 17 18  1  0
 18 19  1  6
 13 20  1  0
 20 21  2  0
 20 22  1  0
 23 22  1  6
 23 24  1  0
 24 25  1  0
 25 26  1  6
 26 27  1  0
 25 28  1  0
 28 29  1  1
 28 30  1  0
 30 31  1  1
 30 32  1  0
 32 33  1  1
  4 34  1  1
 35 34  1  6
 35 36  1  0
 36 37  1  0
 37 38  1  6
 38 39  1  0
 37 40  1  0
 40 41  1  1
 40 42  1  0
 42 43  1  6
 42 44  1  0
 44 45  1  6
 46 45  1  6
 46 47  1  0
 47 48  1  0
 48 49  1  1
 49 50  1  0
 48 51  1  0
 51 52  1  6
 51 53  1  0
 53 54  1  6
 53 55  1  0
 55 56  1  1
  6  1  1  0
 18 12  1  0
 32 23  1  0
 44 35  1  0
 55 46  1  0
 18  1  1  0
  8  4  1  0
M  END
$$$$
