
     RDKit          3D

 56 62  0  0  0  0  0  0  0  0999 V2000
  147.4451  167.0627  130.2793 C   0  0  2  0  0  0  0  0  0  0  0  0
  146.7285  168.3447  129.9044 C   0  0  0  0  0  0  0  0  0  0  0  0
  146.1390  168.9582  131.1359 C   0  0  0  0  0  0  0  0  0  0  0  0
  147.0568  168.9016  132.3440 C   0  0  2  0  0  0  0  0  0  0  0  0
  148.4590  168.7307  131.7222 C   0  0  0  0  0  0  0  0  0  0  0  0
  148.4524  167.2438  131.3292 C   0  0  1  0  0  0  0  0  0  0  0  0
  147.9674  166.6752  132.6654 C   0  0  0  0  0  0  0  0  0  0  0  0
  146.9289  167.6782  133.1293 C   0  0  0  0  0  0  0  0  0  0  0  0
  146.0875  167.3468  134.1078 C   0  0  0  0  0  0  0  0  0  0  0  0
  149.8592  166.8899  131.0770 C   0  0  0  0  0  0  0  0  0  0  0  0
  150.1808  166.0273  129.8968 C   0  0  0  0  0  0  0  0  0  0  0  0
  148.9063  165.3163  129.5006 C   0  0  2  0  0  0  0  0  0  0  0  0
  149.0683  164.0530  128.7774 C   0  0  1  0  0  0  0  0  0  0  0  0
  149.6238  163.0439  129.8217 C   0  0  0  0  0  0  0  0  0  0  0  0
  147.7026  163.4980  128.3916 C   0  0  0  0  0  0  0  0  0  0  0  0
  146.5649  164.3596  128.8212 C   0  0  0  0  0  0  0  0  0  0  0  0
  146.8394  165.7533  128.2759 C   0  0  0  0  0  0  0  0  0  0  0  0
  148.0033  166.3766  129.0112 C   0  0  1  0  0  0  0  0  0  0  0  0
  148.6081  167.4383  128.1461 C   0  0  0  0  0  0  0  0  0  0  0  0
  149.9613  163.9666  127.6436 C   0  0  0  0  0  0  0  0  0  0  0  0
  150.3721  162.8676  127.2113 O   0  0  0  0  0  0  0  0  0  0  0  0
  150.3835  165.1053  127.0009 O   0  0  0  0  0  0  0  0  0  0  0  0
  151.5265  165.8480  127.3726 C   0  0  2  0  0  0  0  0  0  0  0  0
  151.1675  166.7436  128.3495 O   0  0  0  0  0  0  0  0  0  0  0  0
  152.2525  167.4088  128.8651 C   0  0  2  0  0  0  0  0  0  0  0  0
  151.7416  168.5065  129.7815 C   0  0  0  0  0  0  0  0  0  0  0  0
  150.4606  168.2075  130.1939 O   0  0  0  0  0  0  0  0  0  0  0  0
  153.1327  167.9914  127.8082 C   0  0  1  0  0  0  0  0  0  0  0  0
  154.3106  167.2524  127.6509 O   0  0  0  0  0  0  0  0  0  0  0  0
  152.4136  168.0041  126.4930 C   0  0  2  0  0  0  0  0  0  0  0  0
  151.2975  168.8459  126.5100 O   0  0  0  0  0  0  0  0  0  0  0  0
  151.9554  166.6216  126.1292 C   0  0  1  0  0  0  0  0  0  0  0  0
  152.9074  165.9262  125.3864 O   0  0  0  0  0  0  0  0  0  0  0  0
  147.1338  170.0838  133.0145 O   0  0  0  0  0  0  0  0  0  0  0  0
  146.4099  171.1483  132.5422 C   0  0  2  0  0  0  0  0  0  0  0  0
  147.0202  171.5204  131.3410 O   0  0  0  0  0  0  0  0  0  0  0  0
  147.6518  172.7291  131.3533 C   0  0  2  0  0  0  0  0  0  0  0  0
  148.5503  172.7602  130.1031 C   0  0  0  0  0  0  0  0  0  0  0  0
  148.0686  173.6654  129.1647 O   0  0  0  0  0  0  0  0  0  0  0  0
  148.5793  172.8701  132.5192 C   0  0  1  0  0  0  0  0  0  0  0  0
  149.1843  174.1263  132.4976 O   0  0  0  0  0  0  0  0  0  0  0  0
  147.9552  172.5367  133.8326 C   0  0  2  0  0  0  0  0  0  0  0  0
  148.5062  171.3526  134.3752 O   0  0  0  0  0  0  0  0  0  0  0  0
  146.4919  172.2375  133.5952 C   0  0  1  0  0  0  0  0  0  0  0  0
  145.8384  173.3920  133.2163 O   0  0  0  0  0  0  0  0  0  0  0  0
  144.6880  173.6733  133.9205 C   0  0  2  0  0  0  0  0  0  0  0  0
  144.1300  172.4414  134.2610 O   0  0  0  0  0  0  0  0  0  0  0  0
  143.1451  172.5022  135.2128 C   0  0  2  0  0  0  0  0  0  0  0  0
  142.5801  171.0783  135.3274 C   0  0  0  0  0  0  0  0  0  0  0  0
  142.8139  170.6482  136.6256 O   0  0  0  0  0  0  0  0  0  0  0  0
  142.0539  173.4267  134.7780 C   0  0  1  0  0  0  0  0  0  0  0  0
  141.9932  174.5224  135.6359 O   0  0  0  0  0  0  0  0  0  0  0  0
  142.2561  173.8589  133.3586 C   0  0  2  0  0  0  0  0  0  0  0  0
  141.9867  172.8753  132.4375 O   0  0  0  0  0  0  0  0  0  0  0  0
  143.6458  174.4032  133.1094 C   0  0  1  0  0  0  0  0  0  0  0  0
  143.6567  175.7310  133.5371 O   0  0  0  0  0  0  0  0  0  0  0  0
  1  2  1  6
  2  3  1  0
  3  4  1  0
  4  5  1  0
  5  6  1  0
  6  7  1  1
  7  8  1  0
  8  9  2  0
  6 10  1  0
 10 11  1  0
 12 11  1  6
 12 13  1  0
 13 14  1  1
 13 15  1  0
 15 16  1  0
 16 17  1  0
 17 18  1  0
 18 19  1  6
 13 20  1  0
 20 21  2  0
 20 22  1  0
 23 22  1  6
 23 24  1  0
 24 25  1  0
 25 26  1  1
 26 27  1  0
 25 28  1  0
 28 29  1  6
 28 30  1  0
 30 31  1  1
 30 32  1  0
 32 33  1  1
  4 34  1  1
 35 34  1  1
 35 36  1  0
 36 37  1  0
 37 38  1  6
 38 39  1  0
 37 40  1  0
 40 41  1  1
 40 42  1  0
 42 43  1  6
 42 44  1  0
 44 45  1  6
 46 45  1  6
 46 47  1  0
 47 48  1  0
 48 49  1  6
 49 50  1  0
 48 51  1  0
 51 52  1  1
 51 53  1  0
 53 54  1  6
 53 55  1  0
 55 56  1  1
  6  1  1  0
 18 12  1  0
 32 23  1  0
 44 35  1  0
 55 46  1  0
 18  1  1  0
  8  4  1  0
M  END
$$$$
