
     RDKit          3D

 56 62  0  0  0  0  0  0  0  0999 V2000
  190.9927  160.2529  121.8145 C   0  0  2  0  0  0  0  0  0  0  0  0
  189.7611  159.3790  121.9454 C   0  0  0  0  0  0  0  0  0  0  0  0
  190.1835  157.9703  122.2242 C   0  0  0  0  0  0  0  0  0  0  0  0
  191.3264  157.8623  123.2177 C   0  0  2  0  0  0  0  0  0  0  0  0
  191.2632  159.2000  123.9849 C   0  0  0  0  0  0  0  0  0  0  0  0
  191.8879  160.1754  122.9731 C   0  0  1  0  0  0  0  0  0  0  0  0
  193.1451  159.3645  122.6478 C   0  0  0  0  0  0  0  0  0  0  0  0
  192.6507  157.9315  122.6084 C   0  0  0  0  0  0  0  0  0  0  0  0
  193.4145  156.9885  122.0585 C   0  0  0  0  0  0  0  0  0  0  0  0
  192.2181  161.3893  123.7383 C   0  0  0  0  0  0  0  0  0  0  0  0
  191.9318  162.7239  123.1240 C   0  0  0  0  0  0  0  0  0  0  0  0
  191.8014  162.5121  121.6324 C   0  0  2  0  0  0  0  0  0  0  0  0
  192.0743  163.6769  120.7874 C   0  0  1  0  0  0  0  0  0  0  0  0
  193.6072  163.9159  120.8905 C   0  0  0  0  0  0  0  0  0  0  0  0
  191.8355  163.3232  119.3245 C   0  0  0  0  0  0  0  0  0  0  0  0
  191.3816  161.9189  119.1162 C   0  0  0  0  0  0  0  0  0  0  0  0
  190.1641  161.7145  120.0057 C   0  0  0  0  0  0  0  0  0  0  0  0
  190.5811  161.6999  121.4581 C   0  0  1  0  0  0  0  0  0  0  0  0
  189.3990  162.0598  122.3034 C   0  0  0  0  0  0  0  0  0  0  0  0
  191.4635  164.9542  121.0801 C   0  0  0  0  0  0  0  0  0  0  0  0
  192.1310  165.9199  121.5107 O   0  0  0  0  0  0  0  0  0  0  0  0
  190.1165  165.1432  120.8859 O   0  0  0  0  0  0  0  0  0  0  0  0
  189.5323  166.3801  120.5321 C   0  0  2  0  0  0  0  0  0  0  0  0
  188.2677  166.4345  121.0641 O   0  0  0  0  0  0  0  0  0  0  0  0
  187.6833  167.6640  120.8837 C   0  0  2  0  0  0  0  0  0  0  0  0
  186.2320  167.5655  121.3192 C   0  0  0  0  0  0  0  0  0  0  0  0
  186.0554  166.4380  122.0925 O   0  0  0  0  0  0  0  0  0  0  0  0
  187.7635  168.1436  119.4712 C   0  0  1  0  0  0  0  0  0  0  0  0
  188.7229  169.1512  119.3209 O   0  0  0  0  0  0  0  0  0  0  0  0
  188.1365  167.0086  118.5658 C   0  0  2  0  0  0  0  0  0  0  0  0
  187.1541  166.0146  118.5336 O   0  0  0  0  0  0  0  0  0  0  0  0
  189.4264  166.3820  119.0099 C   0  0  1  0  0  0  0  0  0  0  0  0
  190.5369  166.9743  118.4118 O   0  0  0  0  0  0  0  0  0  0  0  0
  191.1152  156.9201  124.1774 O   0  0  0  0  0  0  0  0  0  0  0  0
  189.9022  156.9028  124.8166 C   0  0  2  0  0  0  0  0  0  0  0  0
  189.9776  157.8907  125.8025 O   0  0  0  0  0  0  0  0  0  0  0  0
  189.9830  157.4373  127.0888 C   0  0  2  0  0  0  0  0  0  0  0  0
  190.4481  158.6176  127.9614 C   0  0  0  0  0  0  0  0  0  0  0  0
  191.8086  158.8519  127.7999 O   0  0  0  0  0  0  0  0  0  0  0  0
  190.9947  156.3555  127.3023 C   0  0  1  0  0  0  0  0  0  0  0  0
  190.9478  155.9133  128.6239 O   0  0  0  0  0  0  0  0  0  0  0  0
  190.9166  155.2486  126.3051 C   0  0  2  0  0  0  0  0  0  0  0  0
  192.0507  155.2397  125.4602 O   0  0  0  0  0  0  0  0  0  0  0  0
  189.7333  155.5130  125.4012 C   0  0  1  0  0  0  0  0  0  0  0  0
  188.5627  155.3780  126.1189 O   0  0  0  0  0  0  0  0  0  0  0  0
  187.5507  154.7048  125.4699 C   0  0  2  0  0  0  0  0  0  0  0  0
  187.3277  155.3939  124.2781 O   0  0  0  0  0  0  0  0  0  0  0  0
  186.5688  154.7172  123.3585 C   0  0  2  0  0  0  0  0  0  0  0  0
  186.3301  155.7002  122.2024 C   0  0  0  0  0  0  0  0  0  0  0  0
  185.8147  154.9685  121.1424 O   0  0  0  0  0  0  0  0  0  0  0  0
  185.2518  154.3305  123.9502 C   0  0  1  0  0  0  0  0  0  0  0  0
  185.1564  152.9429  124.0247 O   0  0  0  0  0  0  0  0  0  0  0  0
  185.0670  154.9606  125.2960 C   0  0  2  0  0  0  0  0  0  0  0  0
  184.8109  156.3096  125.2444 O   0  0  0  0  0  0  0  0  0  0  0  0
  186.2407  154.7145  126.2188 C   0  0  1  0  0  0  0  0  0  0  0  0
  186.0795  153.4428  126.7690 O   0  0  0  0  0  0  0  0  0  0  0  0
  1  2  1  1
  2  3  1  0
  3  4  1  0
  4  5  1  0
  5  6  1  0
  6  7  1  6
  7  8  1  0
  8  9  2  0
  6 10  1  0
 10 11  1  0
 12 11  1  1
 12 13  1  0
 13 14  1  6
 13 15  1  0
 15 16  1  0
 16 17  1  0
 17 18  1  0
 18 19  1  1
 13 20  1  0
 20 21  2  0
 20 22  1  0
 23 22  1  1
 23 24  1  0
 24 25  1  0
 25 26  1  6
 26 27  1  0
 25 28  1  0
 28 29  1  1
 28 30  1  0
 30 31  1  1
 30 32  1  0
 32 33  1  6
  4 34  1  1
 35 34  1  1
 35 36  1  0
 36 37  1  0
 37 38  1  1
 38 39  1  0
 37 40  1  0
 40 41  1  1
 40 42  1  0
 42 43  1  6
 42 44  1  0
 44 45  1  1
 46 45  1  1
 46 47  1  0
 47 48  1  0
 48 49  1  6
 49 50  1  0
 48 51  1  0
 51 52  1  1
 51 53  1  0
 53 54  1  6
 53 55  1  0
 55 56  1  6
  6  1  1  0
 18 12  1  0
 32 23  1  0
 44 35  1  0
 55 46  1  0
 18  1  1  0
  8  4  1  0
M  END
$$$$
