
     RDKit          3D

 56 62  0  0  0  0  0  0  0  0999 V2000
  168.4168  146.1630  126.1698 C   0  0  2  0  0  0  0  0  0  0  0  0
  167.3031  145.8190  125.2009 C   0  0  0  0  0  0  0  0  0  0  0  0
  166.0009  145.7858  125.9384 C   0  0  0  0  0  0  0  0  0  0  0  0
  165.8409  146.9124  126.9434 C   0  0  2  0  0  0  0  0  0  0  0  0
  166.8342  147.9830  126.4440 C   0  0  0  0  0  0  0  0  0  0  0  0
  168.1819  147.4068  126.9099 C   0  0  1  0  0  0  0  0  0  0  0  0
  167.7973  147.1212  128.3639 C   0  0  0  0  0  0  0  0  0  0  0  0
  166.3741  146.6068  128.2670 C   0  0  0  0  0  0  0  0  0  0  0  0
  165.8302  145.9801  129.3094 C   0  0  0  0  0  0  0  0  0  0  0  0
  169.1448  148.5171  126.8199 C   0  0  0  0  0  0  0  0  0  0  0  0
  170.5098  148.2395  126.2721 C   0  0  0  0  0  0  0  0  0  0  0  0
  170.7415  146.7490  126.3797 C   0  0  2  0  0  0  0  0  0  0  0  0
  172.1389  146.3142  126.4394 C   0  0  1  0  0  0  0  0  0  0  0  0
  172.6563  146.7666  127.8340 C   0  0  0  0  0  0  0  0  0  0  0  0
  172.2068  144.7924  126.4766 C   0  0  0  0  0  0  0  0  0  0  0  0
  170.8707  144.1337  126.4311 C   0  0  0  0  0  0  0  0  0  0  0  0
  170.1492  144.6881  125.2116 C   0  0  0  0  0  0  0  0  0  0  0  0
  169.7806  146.1354  125.4420 C   0  0  1  0  0  0  0  0  0  0  0  0
  169.6038  146.8057  124.1150 C   0  0  0  0  0  0  0  0  0  0  0  0
  173.1041  146.8165  125.4874 C   0  0  0  0  0  0  0  0  0  0  0  0
  174.3151  146.5120  125.5547 O   0  0  0  0  0  0  0  0  0  0  0  0
  172.7094  147.6491  124.4682 O   0  0  0  0  0  0  0  0  0  0  0  0
  172.8731  147.3553  123.0959 C   0  0  2  0  0  0  0  0  0  0  0  0
  173.7028  146.2677  122.9775 O   0  0  0  0  0  0  0  0  0  0  0  0
  173.8011  145.8313  121.6792 C   0  0  2  0  0  0  0  0  0  0  0  0
  174.8830  144.7676  121.6193 C   0  0  0  0  0  0  0  0  0  0  0  0
  174.4595  143.6374  122.2856 O   0  0  0  0  0  0  0  0  0  0  0  0
  174.1105  146.9323  120.7182 C   0  0  1  0  0  0  0  0  0  0  0  0
  172.9863  147.2950  119.9678 O   0  0  0  0  0  0  0  0  0  0  0  0
  174.5822  148.1445  121.4632 C   0  0  2  0  0  0  0  0  0  0  0  0
  175.7927  147.9189  122.1254 O   0  0  0  0  0  0  0  0  0  0  0  0
  173.5616  148.5692  122.4789 C   0  0  1  0  0  0  0  0  0  0  0  0
  172.6438  149.4797  121.9592 O   0  0  0  0  0  0  0  0  0  0  0  0
  164.6282  147.5268  126.8714 O   0  0  0  0  0  0  0  0  0  0  0  0
  164.1375  147.8552  125.6338 C   0  0  2  0  0  0  0  0  0  0  0  0
  164.5876  149.1536  125.3784 O   0  0  0  0  0  0  0  0  0  0  0  0
  163.6209  150.1154  125.3515 C   0  0  2  0  0  0  0  0  0  0  0  0
  164.3532  151.4670  125.4415 C   0  0  0  0  0  0  0  0  0  0  0  0
  164.7292  151.7446  126.7505 O   0  0  0  0  0  0  0  0  0  0  0  0
  162.7328  150.0576  126.5545 C   0  0  1  0  0  0  0  0  0  0  0  0
  161.7522  151.0454  126.4707 O   0  0  0  0  0  0  0  0  0  0  0  0
  162.1822  148.6998  126.8355 C   0  0  2  0  0  0  0  0  0  0  0  0
  162.7278  148.1622  128.0243 O   0  0  0  0  0  0  0  0  0  0  0  0
  162.6252  147.7739  125.7249 C   0  0  1  0  0  0  0  0  0  0  0  0
  162.0028  148.1322  124.5469 O   0  0  0  0  0  0  0  0  0  0  0  0
  161.1870  147.1675  123.9972 C   0  0  2  0  0  0  0  0  0  0  0  0
  161.4660  147.1551  122.6309 O   0  0  0  0  0  0  0  0  0  0  0  0
  160.9764  146.0669  121.9560 C   0  0  2  0  0  0  0  0  0  0  0  0
  161.2671  146.3255  120.4699 C   0  0  0  0  0  0  0  0  0  0  0  0
  162.2526  145.4288  120.0833 O   0  0  0  0  0  0  0  0  0  0  0  0
  159.4989  145.9515  122.1515 C   0  0  1  0  0  0  0  0  0  0  0  0
  159.2046  144.7836  122.8511 O   0  0  0  0  0  0  0  0  0  0  0  0
  158.9592  147.1575  122.8563 C   0  0  2  0  0  0  0  0  0  0  0  0
  158.9128  148.2831  122.0694 O   0  0  0  0  0  0  0  0  0  0  0  0
  159.7152  147.4737  124.1283 C   0  0  1  0  0  0  0  0  0  0  0  0
  159.2157  146.6397  125.1289 O   0  0  0  0  0  0  0  0  0  0  0  0
  1  2  1  6
  2  3  1  0
  3  4  1  0
  4  5  1  0
  5  6  1  0
  6  7  1  1
  7  8  1  0
  8  9  2  0
  6 10  1  0
 10 11  1  0
 12 11  1  6
 12 13  1  0
 13 14  1  1
 13 15  1  0
 15 16  1  0
 16 17  1  0
 17 18  1  0
 18 19  1  6
 13 20  1  0
 20 21  2  0
 20 22  1  0
 23 22  1  1
 23 24  1  0
 24 25  1  0
 25 26  1  1
 26 27  1  0
 25 28  1  0
 28 29  1  1
 28 30  1  0
 30 31  1  1
 30 32  1  0
 32 33  1  6
  4 34  1  1
 35 34  1  1
 35 36  1  0
 36 37  1  0
 37 38  1  1
 38 39  1  0
 37 40  1  0
 40 41  1  6
 40 42  1  0
 42 43  1  1
 42 44  1  0
 44 45  1  6
 46 45  1  1
 46 47  1  0
 47 48  1  0
 48 49  1  6
 49 50  1  0
 48 51  1  0
 51 52  1  1
 51 53  1  0
 53 54  1  6
 53 55  1  0
 55 56  1  1
  6  1  1  0
 18 12  1  0
 32 23  1  0
 44 35  1  0
 55 46  1  0
 18  1  1  0
  8  4  1  0
M  END
$$$$
