
     RDKit          3D

 56 62  0  0  0  0  0  0  0  0999 V2000
  147.3501  167.4812  130.8203 C   0  0  2  0  0  0  0  0  0  0  0  0
  146.4824  167.8750  131.9991 C   0  0  0  0  0  0  0  0  0  0  0  0
  147.0145  167.2294  133.2403 C   0  0  0  0  0  0  0  0  0  0  0  0
  148.5291  167.2595  133.3414 C   0  0  2  0  0  0  0  0  0  0  0  0
  148.9285  168.4211  132.4069 C   0  0  0  0  0  0  0  0  0  0  0  0
  148.7720  167.7789  131.0182 C   0  0  1  0  0  0  0  0  0  0  0  0
  149.5726  166.5016  131.2858 C   0  0  0  0  0  0  0  0  0  0  0  0
  149.1888  166.1247  132.7036 C   0  0  0  0  0  0  0  0  0  0  0  0
  149.4659  164.9025  133.1557 C   0  0  0  0  0  0  0  0  0  0  0  0
  149.4813  168.6682  130.0834 C   0  0  0  0  0  0  0  0  0  0  0  0
  148.8494  168.9677  128.7599 C   0  0  0  0  0  0  0  0  0  0  0  0
  147.8267  167.8854  128.4963 C   0  0  2  0  0  0  0  0  0  0  0  0
  147.4939  167.6382  127.0915 C   0  0  1  0  0  0  0  0  0  0  0  0
  148.7556  166.9694  126.4763 C   0  0  0  0  0  0  0  0  0  0  0  0
  146.4068  166.5747  126.9959 C   0  0  0  0  0  0  0  0  0  0  0  0
  145.9495  166.0676  128.3207 C   0  0  0  0  0  0  0  0  0  0  0  0
  145.5499  167.2842  129.1424 C   0  0  0  0  0  0  0  0  0  0  0  0
  146.7776  168.0823  129.5159 C   0  0  1  0  0  0  0  0  0  0  0  0
  146.3671  169.4929  129.8047 C   0  0  0  0  0  0  0  0  0  0  0  0
  147.1709  168.7379  126.2102 C   0  0  0  0  0  0  0  0  0  0  0  0
  145.9889  169.0877  125.9998 O   0  0  0  0  0  0  0  0  0  0  0  0
  148.1682  169.4388  125.5762 O   0  0  0  0  0  0  0  0  0  0  0  0
  149.5331  169.3763  125.9358 C   0  0  2  0  0  0  0  0  0  0  0  0
  150.0038  170.6569  126.0899 O   0  0  0  0  0  0  0  0  0  0  0  0
  151.2878  170.6808  126.5763 C   0  0  2  0  0  0  0  0  0  0  0  0
  151.7868  172.1139  126.5218 C   0  0  0  0  0  0  0  0  0  0  0  0
  153.1441  172.1235  126.2806 O   0  0  0  0  0  0  0  0  0  0  0  0
  152.2130  169.7864  125.8177 C   0  0  1  0  0  0  0  0  0  0  0  0
  152.5120  168.6230  126.5357 O   0  0  0  0  0  0  0  0  0  0  0  0
  151.5831  169.3815  124.5192 C   0  0  2  0  0  0  0  0  0  0  0  0
  151.3858  170.4713  123.6660 O   0  0  0  0  0  0  0  0  0  0  0  0
  150.2547  168.7249  124.7597 C   0  0  1  0  0  0  0  0  0  0  0  0
  150.3664  167.3450  124.9174 O   0  0  0  0  0  0  0  0  0  0  0  0
  148.9769  167.6509  134.5659 O   0  0  0  0  0  0  0  0  0  0  0  0
  148.5939  168.8805  135.0365 C   0  0  2  0  0  0  0  0  0  0  0  0
  149.0264  169.8049  134.0815 O   0  0  0  0  0  0  0  0  0  0  0  0
  150.0322  170.6349  134.4812 C   0  0  2  0  0  0  0  0  0  0  0  0
  150.5961  171.2786  133.2010 C   0  0  0  0  0  0  0  0  0  0  0  0
  150.9649  172.5995  133.4274 O   0  0  0  0  0  0  0  0  0  0  0  0
  151.1744  169.8853  135.0917 C   0  0  1  0  0  0  0  0  0  0  0  0
  152.1655  170.7770  135.5004 O   0  0  0  0  0  0  0  0  0  0  0  0
  150.7668  168.9246  136.1579 C   0  0  2  0  0  0  0  0  0  0  0  0
  150.9648  167.5867  135.7444 O   0  0  0  0  0  0  0  0  0  0  0  0
  149.2777  169.0704  136.3775 C   0  0  1  0  0  0  0  0  0  0  0  0
  149.0105  170.3018  136.9396 O   0  0  0  0  0  0  0  0  0  0  0  0
  148.5166  170.2653  138.2253 C   0  0  2  0  0  0  0  0  0  0  0  0
  147.1310  170.3762  138.1125 O   0  0  0  0  0  0  0  0  0  0  0  0
  146.4365  170.0642  139.2526 C   0  0  2  0  0  0  0  0  0  0  0  0
  144.9653  170.3892  138.9534 C   0  0  0  0  0  0  0  0  0  0  0  0
  144.6923  169.9151  137.6783 O   0  0  0  0  0  0  0  0  0  0  0  0
  146.9004  170.9089  140.3952 C   0  0  1  0  0  0  0  0  0  0  0  0
  147.4959  170.1060  141.3652 O   0  0  0  0  0  0  0  0  0  0  0  0
  147.8388  171.9758  139.9222 C   0  0  2  0  0  0  0  0  0  0  0  0
  147.2196  172.9915  139.2345 O   0  0  0  0  0  0  0  0  0  0  0  0
  148.9682  171.4242  139.0797 C   0  0  1  0  0  0  0  0  0  0  0  0
  149.9373  170.9299  139.9530 O   0  0  0  0  0  0  0  0  0  0  0  0
  1  2  1  1
  2  3  1  0
  3  4  1  0
  4  5  1  0
  5  6  1  0
  6  7  1  1
  7  8  1  0
  8  9  2  0
  6 10  1  0
 10 11  1  0
 12 11  1  6
 12 13  1  0
 13 14  1  6
 13 15  1  0
 15 16  1  0
 16 17  1  0
 17 18  1  0
 18 19  1  1
 13 20  1  0
 20 21  2  0
 20 22  1  0
 23 22  1  6
 23 24  1  0
 24 25  1  0
 25 26  1  6
 26 27  1  0
 25 28  1  0
 28 29  1  1
 28 30  1  0
 30 31  1  6
 30 32  1  0
 32 33  1  1
  4 34  1  1
 35 34  1  6
 35 36  1  0
 36 37  1  0
 37 38  1  6
 38 39  1  0
 37 40  1  0
 40 41  1  1
 40 42  1  0
 42 43  1  6
 42 44  1  0
 44 45  1  6
 46 45  1  6
 46 47  1  0
 47 48  1  0
 48 49  1  6
 49 50  1  0
 48 51  1  0
 51 52  1  1
 51 53  1  0
 53 54  1  6
 53 55  1  0
 55 56  1  1
  6  1  1  0
 18 12  1  0
 32 23  1  0
 44 35  1  0
 55 46  1  0
 18  1  1  0
  8  4  1  0
M  END
$$$$
