
     RDKit          3D

 56 62  0  0  0  0  0  0  0  0999 V2000
  117.3188  148.3008  161.5283 C   0  0  2  0  0  0  0  0  0  0  0  0
  116.3197  148.6598  160.4464 C   0  0  0  0  0  0  0  0  0  0  0  0
  116.9607  148.4834  159.1053 C   0  0  0  0  0  0  0  0  0  0  0  0
  117.8122  147.2311  158.9969 C   0  0  2  0  0  0  0  0  0  0  0  0
  117.2630  146.3250  160.1191 C   0  0  0  0  0  0  0  0  0  0  0  0
  117.8888  146.9588  161.3730 C   0  0  1  0  0  0  0  0  0  0  0  0
  119.3350  147.0260  160.8753 C   0  0  0  0  0  0  0  0  0  0  0  0
  119.1974  147.4174  159.4167 C   0  0  0  0  0  0  0  0  0  0  0  0
  120.2645  147.8583  158.7520 C   0  0  0  0  0  0  0  0  0  0  0  0
  117.7381  145.9600  162.4444 C   0  0  0  0  0  0  0  0  0  0  0  0
  117.3260  146.4258  163.8058 C   0  0  0  0  0  0  0  0  0  0  0  0
  117.6245  147.9063  163.8825 C   0  0  2  0  0  0  0  0  0  0  0  0
  117.8349  148.4552  165.2241 C   0  0  1  0  0  0  0  0  0  0  0  0
  119.2001  147.8822  165.6987 C   0  0  0  0  0  0  0  0  0  0  0  0
  118.0555  149.9605  165.1393 C   0  0  0  0  0  0  0  0  0  0  0  0
  117.9922  150.4960  163.7498 C   0  0  0  0  0  0  0  0  0  0  0  0
  116.6673  150.0339  163.1613 C   0  0  0  0  0  0  0  0  0  0  0  0
  116.6990  148.5418  162.9240 C   0  0  1  0  0  0  0  0  0  0  0  0
  115.2931  148.0277  162.8944 C   0  0  0  0  0  0  0  0  0  0  0  0
  116.9022  148.1642  166.2897 C   0  0  0  0  0  0  0  0  0  0  0  0
  116.7167  148.9585  167.2375 O   0  0  0  0  0  0  0  0  0  0  0  0
  116.1830  146.9935  166.2859 O   0  0  0  0  0  0  0  0  0  0  0  0
  116.3218  145.9744  167.2546 C   0  0  2  0  0  0  0  0  0  0  0  0
  117.5745  146.0662  167.8093 O   0  0  0  0  0  0  0  0  0  0  0  0
  117.7395  145.1977  168.8602 C   0  0  2  0  0  0  0  0  0  0  0  0
  119.2005  145.2276  169.2725 C   0  0  0  0  0  0  0  0  0  0  0  0
  119.5497  146.5066  169.6504 O   0  0  0  0  0  0  0  0  0  0  0  0
  117.3285  143.8003  168.5289 C   0  0  1  0  0  0  0  0  0  0  0  0
  116.1034  143.4681  169.1179 O   0  0  0  0  0  0  0  0  0  0  0  0
  117.1867  143.6469  167.0445 C   0  0  2  0  0  0  0  0  0  0  0  0
  118.4047  143.8117  166.3782 O   0  0  0  0  0  0  0  0  0  0  0  0
  116.2128  144.6520  166.5013 C   0  0  1  0  0  0  0  0  0  0  0  0
  114.9060  144.1686  166.4851 O   0  0  0  0  0  0  0  0  0  0  0  0
  117.5817  146.5231  157.8573 O   0  0  0  0  0  0  0  0  0  0  0  0
  116.4337  146.7797  157.1526 C   0  0  2  0  0  0  0  0  0  0  0  0
  115.4064  146.1418  157.8536 O   0  0  0  0  0  0  0  0  0  0  0  0
  114.8386  145.0750  157.2213 C   0  0  2  0  0  0  0  0  0  0  0  0
  114.0347  144.3152  158.2925 C   0  0  0  0  0  0  0  0  0  0  0  0
  114.8287  143.3754  158.9392 O   0  0  0  0  0  0  0  0  0  0  0  0
  115.8619  144.1041  156.7219 C   0  0  1  0  0  0  0  0  0  0  0  0
  115.2342  143.0444  156.0681 O   0  0  0  0  0  0  0  0  0  0  0  0
  116.9512  144.7324  155.9191 C   0  0  2  0  0  0  0  0  0  0  0  0
  118.1878  144.6780  156.6031 O   0  0  0  0  0  0  0  0  0  0  0  0
  116.6322  146.2026  155.7636 C   0  0  1  0  0  0  0  0  0  0  0  0
  115.5191  146.3531  154.9625 O   0  0  0  0  0  0  0  0  0  0  0  0
  115.7805  146.6848  153.6510 C   0  0  2  0  0  0  0  0  0  0  0  0
  116.9203  147.4878  153.6731 O   0  0  0  0  0  0  0  0  0  0  0  0
  117.5118  147.6768  152.4508 C   0  0  2  0  0  0  0  0  0  0  0  0
  118.6423  148.6911  152.6808 C   0  0  0  0  0  0  0  0  0  0  0  0
  118.0529  149.8702  153.1134 O   0  0  0  0  0  0  0  0  0  0  0  0
  116.5319  148.2503  151.4786 C   0  0  1  0  0  0  0  0  0  0  0  0
  116.2959  147.3388  150.4522 O   0  0  0  0  0  0  0  0  0  0  0  0
  115.2590  148.6328  152.1686 C   0  0  2  0  0  0  0  0  0  0  0  0
  115.3685  149.7613  152.9449 O   0  0  0  0  0  0  0  0  0  0  0  0
  114.6920  147.5081  153.0071 C   0  0  1  0  0  0  0  0  0  0  0  0
  113.9954  146.6576  152.1484 O   0  0  0  0  0  0  0  0  0  0  0  0
  1  2  1  6
  2  3  1  0
  3  4  1  0
  4  5  1  0
  5  6  1  0
  6  7  1  6
  7  8  1  0
  8  9  2  0
  6 10  1  0
 10 11  1  0
 12 11  1  1
 12 13  1  0
 13 14  1  1
 13 15  1  0
 15 16  1  0
 16 17  1  0
 17 18  1  0
 18 19  1  6
 13 20  1  0
 20 21  2  0
 20 22  1  0
 23 22  1  6
 23 24  1  0
 24 25  1  0
 25 26  1  6
 26 27  1  0
 25 28  1  0
 28 29  1  1
 28 30  1  0
 30 31  1  6
 30 32  1  0
 32 33  1  1
  4 34  1  6
 35 34  1  1
 35 36  1  0
 36 37  1  0
 37 38  1  1
 38 39  1  0
 37 40  1  0
 40 41  1  6
 40 42  1  0
 42 43  1  1
 42 44  1  0
 44 45  1  6
 46 45  1  1
 46 47  1  0
 47 48  1  0
 48 49  1  1
 49 50  1  0
 48 51  1  0
 51 52  1  6
 51 53  1  0
 53 54  1  1
 53 55  1  0
 55 56  1  6
  6  1  1  0
 18 12  1  0
 32 23  1  0
 44 35  1  0
 55 46  1  0
 18  1  1  0
  8  4  1  0
M  END
$$$$
