
     RDKit          3D

 56 62  0  0  0  0  0  0  0  0999 V2000
  204.6909  132.6025  134.2317 C   0  0  2  0  0  0  0  0  0  0  0  0
  204.8693  131.6286  133.0840 C   0  0  0  0  0  0  0  0  0  0  0  0
  204.7542  130.2291  133.6026 C   0  0  0  0  0  0  0  0  0  0  0  0
  203.6393  130.0449  134.6166 C   0  0  2  0  0  0  0  0  0  0  0  0
  202.6920  131.2287  134.3280 C   0  0  0  0  0  0  0  0  0  0  0  0
  203.4444  132.4024  134.9774 C   0  0  1  0  0  0  0  0  0  0  0  0
  203.7118  131.7537  136.3381 C   0  0  0  0  0  0  0  0  0  0  0  0
  204.0397  130.3137  135.9940 C   0  0  0  0  0  0  0  0  0  0  0  0
  204.6160  129.5351  136.9086 C   0  0  0  0  0  0  0  0  0  0  0  0
  202.4632  133.4944  135.0895 C   0  0  0  0  0  0  0  0  0  0  0  0
  202.8988  134.8867  134.7546 C   0  0  0  0  0  0  0  0  0  0  0  0
  204.4086  134.9153  134.8339 C   0  0  2  0  0  0  0  0  0  0  0  0
  205.0180  136.2211  135.0966 C   0  0  1  0  0  0  0  0  0  0  0  0
  204.6663  136.5548  136.5739 C   0  0  0  0  0  0  0  0  0  0  0  0
  206.5366  136.0971  135.0790 C   0  0  0  0  0  0  0  0  0  0  0  0
  207.0197  134.7165  134.7933 C   0  0  0  0  0  0  0  0  0  0  0  0
  206.3512  134.2764  133.4993 C   0  0  0  0  0  0  0  0  0  0  0  0
  204.8744  134.0533  133.7297 C   0  0  1  0  0  0  0  0  0  0  0  0
  204.1573  134.1781  132.4214 C   0  0  0  0  0  0  0  0  0  0  0  0
  204.6205  137.3825  134.3329 C   0  0  0  0  0  0  0  0  0  0  0  0
  204.2608  138.4438  134.8876 O   0  0  0  0  0  0  0  0  0  0  0  0
  204.6322  137.3506  132.9592 O   0  0  0  0  0  0  0  0  0  0  0  0
  204.0674  138.3520  132.1380 C   0  0  2  0  0  0  0  0  0  0  0  0
  202.8534  138.7170  132.6656 O   0  0  0  0  0  0  0  0  0  0  0  0
  202.3023  139.7863  132.0035 C   0  0  2  0  0  0  0  0  0  0  0  0
  200.8888  139.9850  132.5214 C   0  0  0  0  0  0  0  0  0  0  0  0
  200.0122  139.2197  131.7822 O   0  0  0  0  0  0  0  0  0  0  0  0
  202.2845  139.6050  130.5209 C   0  0  1  0  0  0  0  0  0  0  0  0
  203.2652  140.3813  129.8931 O   0  0  0  0  0  0  0  0  0  0  0  0
  202.5398  138.1683  130.1779 C   0  0  2  0  0  0  0  0  0  0  0  0
  201.5217  137.3273  130.6370 O   0  0  0  0  0  0  0  0  0  0  0  0
  203.8375  137.7063  130.7748 C   0  0  1  0  0  0  0  0  0  0  0  0
  204.9165  137.9057  129.9160 O   0  0  0  0  0  0  0  0  0  0  0  0
  202.8750  128.9438  134.3787 O   0  0  0  0  0  0  0  0  0  0  0  0
  203.3754  127.9702  133.5529 C   0  0  2  0  0  0  0  0  0  0  0  0
  203.1006  128.3977  132.2508 O   0  0  0  0  0  0  0  0  0  0  0  0
  202.1802  127.6553  131.5711 C   0  0  2  0  0  0  0  0  0  0  0  0
  201.7582  128.4986  130.3538 C   0  0  0  0  0  0  0  0  0  0  0  0
  200.9930  129.5912  130.7447 O   0  0  0  0  0  0  0  0  0  0  0  0
  200.9300  127.4404  132.3650 C   0  0  1  0  0  0  0  0  0  0  0  0
  200.0310  126.6622  131.6367 O   0  0  0  0  0  0  0  0  0  0  0  0
  201.1704  126.9302  133.7461 C   0  0  2  0  0  0  0  0  0  0  0  0
  200.8382  127.9037  134.7166 O   0  0  0  0  0  0  0  0  0  0  0  0
  202.6539  126.6825  133.9040 C   0  0  1  0  0  0  0  0  0  0  0  0
  203.0351  125.6255  133.1034 O   0  0  0  0  0  0  0  0  0  0  0  0
  203.5400  124.5332  133.7745 C   0  0  2  0  0  0  0  0  0  0  0  0
  204.1042  125.0265  134.9506 O   0  0  0  0  0  0  0  0  0  0  0  0
  204.3949  124.0720  135.8908 C   0  0  2  0  0  0  0  0  0  0  0  0
  205.1284  124.8051  137.0241 C   0  0  0  0  0  0  0  0  0  0  0  0
  204.3520  124.6740  138.1665 O   0  0  0  0  0  0  0  0  0  0  0  0
  205.3007  123.0309  135.3164 C   0  0  1  0  0  0  0  0  0  0  0  0
  204.6439  121.8033  135.2761 O   0  0  0  0  0  0  0  0  0  0  0  0
  205.7815  123.4346  133.9569 C   0  0  2  0  0  0  0  0  0  0  0  0
  206.7155  124.4423  133.9774 O   0  0  0  0  0  0  0  0  0  0  0  0
  204.6492  123.8278  133.0334 C   0  0  1  0  0  0  0  0  0  0  0  0
  204.1060  122.6522  132.5151 O   0  0  0  0  0  0  0  0  0  0  0  0
  1  2  1  6
  2  3  1  0
  3  4  1  0
  4  5  1  0
  5  6  1  0
  6  7  1  1
  7  8  1  0
  8  9  2  0
  6 10  1  0
 10 11  1  0
 12 11  1  6
 12 13  1  0
 13 14  1  1
 13 15  1  0
 15 16  1  0
 16 17  1  0
 17 18  1  0
 18 19  1  6
 13 20  1  0
 20 21  2  0
 20 22  1  0
 23 22  1  1
 23 24  1  0
 24 25  1  0
 25 26  1  1
 26 27  1  0
 25 28  1  0
 28 29  1  6
 28 30  1  0
 30 31  1  1
 30 32  1  0
 32 33  1  6
  4 34  1  1
 35 34  1  1
 35 36  1  0
 36 37  1  0
 37 38  1  6
 38 39  1  0
 37 40  1  0
 40 41  1  6
 40 42  1  0
 42 43  1  1
 42 44  1  0
 44 45  1  6
 46 45  1  6
 46 47  1  0
 47 48  1  0
 48 49  1  1
 49 50  1  0
 48 51  1  0
 51 52  1  6
 51 53  1  0
 53 54  1  1
 53 55  1  0
 55 56  1  1
  6  1  1  0
 18 12  1  0
 32 23  1  0
 44 35  1  0
 55 46  1  0
 18  1  1  0
  8  4  1  0
M  END
$$$$
