
     RDKit          3D

 56 62  0  0  0  0  0  0  0  0999 V2000
  205.4369  133.0656  133.4002 C   0  0  2  0  0  0  0  0  0  0  0  0
  206.6590  132.4826  132.7189 C   0  0  0  0  0  0  0  0  0  0  0  0
  206.7538  131.0238  133.0404 C   0  0  0  0  0  0  0  0  0  0  0  0
  205.4184  130.3027  132.9986 C   0  0  2  0  0  0  0  0  0  0  0  0
  204.5461  131.2133  132.1087 C   0  0  0  0  0  0  0  0  0  0  0  0
  204.1949  132.3577  133.0744 C   0  0  1  0  0  0  0  0  0  0  0  0
  203.7209  131.5015  134.2517 C   0  0  0  0  0  0  0  0  0  0  0  0
  204.6879  130.3334  134.2615 C   0  0  0  0  0  0  0  0  0  0  0  0
  204.7575  129.5479  135.3354 C   0  0  0  0  0  0  0  0  0  0  0  0
  203.0720  133.0776  132.4509 C   0  0  0  0  0  0  0  0  0  0  0  0
  203.0729  134.5741  132.4843 C   0  0  0  0  0  0  0  0  0  0  0  0
  204.0141  134.9972  133.5898 C   0  0  2  0  0  0  0  0  0  0  0  0
  203.7720  136.3177  134.1753 C   0  0  1  0  0  0  0  0  0  0  0  0
  202.4528  136.1779  134.9862 C   0  0  0  0  0  0  0  0  0  0  0  0
  204.8378  136.6244  135.2203 C   0  0  0  0  0  0  0  0  0  0  0  0
  205.8481  135.5403  135.3787 C   0  0  0  0  0  0  0  0  0  0  0  0
  206.4085  135.2564  133.9929 C   0  0  0  0  0  0  0  0  0  0  0  0
  205.3580  134.5871  133.1372 C   0  0  1  0  0  0  0  0  0  0  0  0
  205.6897  134.8193  131.6958 C   0  0  0  0  0  0  0  0  0  0  0  0
  203.5833  137.4726  133.3263 C   0  0  0  0  0  0  0  0  0  0  0  0
  203.9124  138.6214  133.6946 O   0  0  0  0  0  0  0  0  0  0  0  0
  203.0338  137.3349  132.0745 O   0  0  0  0  0  0  0  0  0  0  0  0
  202.2121  138.3050  131.4581 C   0  0  2  0  0  0  0  0  0  0  0  0
  200.9797  138.2825  132.0630 O   0  0  0  0  0  0  0  0  0  0  0  0
  200.1653  139.2933  131.6151 C   0  0  2  0  0  0  0  0  0  0  0  0
  198.7757  139.0671  132.1837 C   0  0  0  0  0  0  0  0  0  0  0  0
  198.1782  138.0049  131.5392 O   0  0  0  0  0  0  0  0  0  0  0  0
  200.1032  139.3718  130.1247 C   0  0  1  0  0  0  0  0  0  0  0  0
  200.8466  140.4503  129.6322 O   0  0  0  0  0  0  0  0  0  0  0  0
  200.6543  138.1146  129.5226 C   0  0  2  0  0  0  0  0  0  0  0  0
  199.8793  136.9946  129.8381 O   0  0  0  0  0  0  0  0  0  0  0  0
  202.0548  137.8693  130.0042 C   0  0  1  0  0  0  0  0  0  0  0  0
  203.0101  138.4581  129.1783 O   0  0  0  0  0  0  0  0  0  0  0  0
  205.4667  129.1241  132.3191 O   0  0  0  0  0  0  0  0  0  0  0  0
  206.5245  128.9022  131.4752 C   0  0  2  0  0  0  0  0  0  0  0  0
  206.0541  129.1916  130.1913 O   0  0  0  0  0  0  0  0  0  0  0  0
  205.9396  128.1217  129.3530 C   0  0  2  0  0  0  0  0  0  0  0  0
  205.0697  128.5893  128.1715 C   0  0  0  0  0  0  0  0  0  0  0  0
  203.7180  128.5119  128.4857 O   0  0  0  0  0  0  0  0  0  0  0  0
  205.1900  126.9893  129.9815 C   0  0  1  0  0  0  0  0  0  0  0  0
  205.1169  125.9158  129.0945 O   0  0  0  0  0  0  0  0  0  0  0  0
  205.6929  126.6068  131.3329 C   0  0  2  0  0  0  0  0  0  0  0  0
  204.7513  126.9258  132.3388 O   0  0  0  0  0  0  0  0  0  0  0  0
  206.9153  127.4448  131.6340 C   0  0  1  0  0  0  0  0  0  0  0  0
  207.9470  127.0777  130.7948 O   0  0  0  0  0  0  0  0  0  0  0  0
  209.1595  126.8651  131.4137 C   0  0  2  0  0  0  0  0  0  0  0  0
  209.6821  128.1284  131.6889 O   0  0  0  0  0  0  0  0  0  0  0  0
  210.7379  128.1336  132.5633 C   0  0  2  0  0  0  0  0  0  0  0  0
  211.2410  129.5843  132.6096 C   0  0  0  0  0  0  0  0  0  0  0  0
  210.1337  130.4067  132.4599 O   0  0  0  0  0  0  0  0  0  0  0  0
  211.8361  127.2518  132.0626 C   0  0  1  0  0  0  0  0  0  0  0  0
  212.0141  126.1785  132.9323 O   0  0  0  0  0  0  0  0  0  0  0  0
  211.5481  126.7810  130.6705 C   0  0  2  0  0  0  0  0  0  0  0  0
  211.6995  127.7563  129.7145 O   0  0  0  0  0  0  0  0  0  0  0  0
  210.1712  126.1674  130.5380 C   0  0  1  0  0  0  0  0  0  0  0  0
  210.2564  124.8499  130.9884 O   0  0  0  0  0  0  0  0  0  0  0  0
  1  2  1  6
  2  3  1  0
  3  4  1  0
  4  5  1  0
  5  6  1  0
  6  7  1  1
  7  8  1  0
  8  9  2  0
  6 10  1  0
 10 11  1  0
 12 11  1  6
 12 13  1  0
 13 14  1  1
 13 15  1  0
 15 16  1  0
 16 17  1  0
 17 18  1  0
 18 19  1  6
 13 20  1  0
 20 21  2  0
 20 22  1  0
 23 22  1  1
 23 24  1  0
 24 25  1  0
 25 26  1  6
 26 27  1  0
 25 28  1  0
 28 29  1  6
 28 30  1  0
 30 31  1  1
 30 32  1  0
 32 33  1  6
  4 34  1  6
 35 34  1  1
 35 36  1  0
 36 37  1  0
 37 38  1  6
 38 39  1  0
 37 40  1  0
 40 41  1  6
 40 42  1  0
 42 43  1  1
 42 44  1  0
 44 45  1  6
 46 45  1  6
 46 47  1  0
 47 48  1  0
 48 49  1  6
 49 50  1  0
 48 51  1  0
 51 52  1  1
 51 53  1  0
 53 54  1  6
 53 55  1  0
 55 56  1  1
  6  1  1  0
 18 12  1  0
 32 23  1  0
 44 35  1  0
 55 46  1  0
 18  1  1  0
  8  4  1  0
M  END
$$$$
