
     RDKit          3D

 56 62  0  0  0  0  0  0  0  0999 V2000
  190.9448  159.2679  114.5107 C   0  0  2  0  0  0  0  0  0  0  0  0
  190.1856  159.3207  115.8216 C   0  0  0  0  0  0  0  0  0  0  0  0
  191.1170  158.9862  116.9445 C   0  0  0  0  0  0  0  0  0  0  0  0
  192.4878  159.6250  116.8101 C   0  0  2  0  0  0  0  0  0  0  0  0
  192.2373  160.8163  115.8613 C   0  0  0  0  0  0  0  0  0  0  0  0
  192.1394  160.1178  114.4946 C   0  0  1  0  0  0  0  0  0  0  0  0
  193.4164  159.2793  114.5949 C   0  0  0  0  0  0  0  0  0  0  0  0
  193.4405  158.8292  116.0428 C   0  0  0  0  0  0  0  0  0  0  0  0
  194.2513  157.8373  116.4084 C   0  0  0  0  0  0  0  0  0  0  0  0
  192.2780  161.1842  113.4888 C   0  0  0  0  0  0  0  0  0  0  0  0
  191.3828  161.1591  112.2895 C   0  0  0  0  0  0  0  0  0  0  0  0
  190.8536  159.7490  112.1545 C   0  0  2  0  0  0  0  0  0  0  0  0
  190.4353  159.3408  110.8115 C   0  0  1  0  0  0  0  0  0  0  0  0
  191.7477  159.2138  109.9875 C   0  0  0  0  0  0  0  0  0  0  0  0
  189.8664  157.9277  110.8531 C   0  0  0  0  0  0  0  0  0  0  0  0
  189.8620  157.3258  112.2165 C   0  0  0  0  0  0  0  0  0  0  0  0
  189.1396  158.3073  113.1275 C   0  0  0  0  0  0  0  0  0  0  0  0
  189.9850  159.5433  113.3303 C   0  0  1  0  0  0  0  0  0  0  0  0
  189.0926  160.6796  113.7228 C   0  0  0  0  0  0  0  0  0  0  0  0
  189.5659  160.1873  110.0255 C   0  0  0  0  0  0  0  0  0  0  0  0
  189.0233  159.7794  108.9753 O   0  0  0  0  0  0  0  0  0  0  0  0
  189.3067  161.4776  110.4202 O   0  0  0  0  0  0  0  0  0  0  0  0
  189.1249  162.5582  109.5282 C   0  0  2  0  0  0  0  0  0  0  0  0
  189.9612  162.3834  108.4533 O   0  0  0  0  0  0  0  0  0  0  0  0
  189.7446  163.3193  107.4721 C   0  0  2  0  0  0  0  0  0  0  0  0
  190.8375  163.1710  106.4285 C   0  0  0  0  0  0  0  0  0  0  0  0
  190.6516  161.9998  105.7255 O   0  0  0  0  0  0  0  0  0  0  0  0
  189.7234  164.7175  107.9976 C   0  0  1  0  0  0  0  0  0  0  0  0
  188.4221  165.2291  108.0540 O   0  0  0  0  0  0  0  0  0  0  0  0
  190.2966  164.7526  109.3822 C   0  0  2  0  0  0  0  0  0  0  0  0
  191.6494  164.4006  109.4023 O   0  0  0  0  0  0  0  0  0  0  0  0
  189.5518  163.8125  110.2850 C   0  0  1  0  0  0  0  0  0  0  0  0
  188.4752  164.4288  110.9198 O   0  0  0  0  0  0  0  0  0  0  0  0
  192.9240  160.2052  117.9617 O   0  0  0  0  0  0  0  0  0  0  0  0
  191.9927  160.5748  118.8977 C   0  0  2  0  0  0  0  0  0  0  0  0
  191.5325  161.8333  118.5001 O   0  0  0  0  0  0  0  0  0  0  0  0
  191.8794  162.8699  119.3159 C   0  0  2  0  0  0  0  0  0  0  0  0
  191.6143  164.1579  118.5147 C   0  0  0  0  0  0  0  0  0  0  0  0
  192.7061  164.4840  117.7187 O   0  0  0  0  0  0  0  0  0  0  0  0
  193.3438  162.8811  119.6234 C   0  0  1  0  0  0  0  0  0  0  0  0
  193.6440  163.9449  120.4735 O   0  0  0  0  0  0  0  0  0  0  0  0
  193.8710  161.5715  120.1058 C   0  0  2  0  0  0  0  0  0  0  0  0
  194.7418  160.9890  119.1559 O   0  0  0  0  0  0  0  0  0  0  0  0
  192.7064  160.6154  120.2359 C   0  0  1  0  0  0  0  0  0  0  0  0
  191.8830  161.0253  121.2642 O   0  0  0  0  0  0  0  0  0  0  0  0
  191.8426  160.1840  122.3546 C   0  0  2  0  0  0  0  0  0  0  0  0
  191.2764  158.9916  121.9046 O   0  0  0  0  0  0  0  0  0  0  0  0
  191.4200  157.9303  122.7605 C   0  0  2  0  0  0  0  0  0  0  0  0
  190.6113  156.7786  122.1448 C   0  0  0  0  0  0  0  0  0  0  0  0
  190.1641  155.9863  123.1923 O   0  0  0  0  0  0  0  0  0  0  0  0
  190.8535  158.2611  124.1037 C   0  0  1  0  0  0  0  0  0  0  0  0
  191.8710  158.2775  125.0547 O   0  0  0  0  0  0  0  0  0  0  0  0
  190.1237  159.5682  124.0665 C   0  0  2  0  0  0  0  0  0  0  0  0
  188.9169  159.5092  123.4120 O   0  0  0  0  0  0  0  0  0  0  0  0
  190.9565  160.6818  123.4700 C   0  0  1  0  0  0  0  0  0  0  0  0
  191.7991  161.1571  124.4751 O   0  0  0  0  0  0  0  0  0  0  0  0
  1  2  1  1
  2  3  1  0
  3  4  1  0
  4  5  1  0
  5  6  1  0
  6  7  1  6
  7  8  1  0
  8  9  2  0
  6 10  1  0
 10 11  1  0
 12 11  1  6
 12 13  1  0
 13 14  1  6
 13 15  1  0
 15 16  1  0
 16 17  1  0
 17 18  1  0
 18 19  1  1
 13 20  1  0
 20 21  2  0
 20 22  1  0
 23 22  1  1
 23 24  1  0
 24 25  1  0
 25 26  1  6
 26 27  1  0
 25 28  1  0
 28 29  1  1
 28 30  1  0
 30 31  1  6
 30 32  1  0
 32 33  1  6
  4 34  1  1
 35 34  1  6
 35 36  1  0
 36 37  1  0
 37 38  1  6
 38 39  1  0
 37 40  1  0
 40 41  1  1
 40 42  1  0
 42 43  1  6
 42 44  1  0
 44 45  1  1
 46 45  1  6
 46 47  1  0
 47 48  1  0
 48 49  1  6
 49 50  1  0
 48 51  1  0
 51 52  1  1
 51 53  1  0
 53 54  1  6
 53 55  1  0
 55 56  1  1
  6  1  1  0
 18 12  1  0
 32 23  1  0
 44 35  1  0
 55 46  1  0
 18  1  1  0
  8  4  1  0
M  END
$$$$
