
     RDKit          3D

 56 62  0  0  0  0  0  0  0  0999 V2000
  126.5417  139.4083  134.5358 C   0  0  2  0  0  0  0  0  0  0  0  0
  127.3450  138.2109  135.0031 C   0  0  0  0  0  0  0  0  0  0  0  0
  126.5533  136.9630  134.7654 C   0  0  0  0  0  0  0  0  0  0  0  0
  125.8303  136.9451  133.4305 C   0  0  2  0  0  0  0  0  0  0  0  0
  126.6155  137.9684  132.5829 C   0  0  0  0  0  0  0  0  0  0  0  0
  126.0994  139.3052  133.1417 C   0  0  1  0  0  0  0  0  0  0  0  0
  124.6007  139.0038  133.0576 C   0  0  0  0  0  0  0  0  0  0  0  0
  124.5014  137.5472  133.4674 C   0  0  0  0  0  0  0  0  0  0  0  0
  123.3153  137.0370  133.7957 C   0  0  0  0  0  0  0  0  0  0  0  0
  126.4945  140.3290  132.1600 C   0  0  0  0  0  0  0  0  0  0  0  0
  127.0332  141.6325  132.6612 C   0  0  0  0  0  0  0  0  0  0  0  0
  126.5948  141.7747  134.1014 C   0  0  2  0  0  0  0  0  0  0  0  0
  126.5086  143.1421  134.6193 C   0  0  1  0  0  0  0  0  0  0  0  0
  125.2859  143.7821  133.9031 C   0  0  0  0  0  0  0  0  0  0  0  0
  126.1228  143.1145  136.0932 C   0  0  0  0  0  0  0  0  0  0  0  0
  125.9445  141.7388  136.6381 C   0  0  0  0  0  0  0  0  0  0  0  0
  127.2202  140.9724  136.3213 C   0  0  0  0  0  0  0  0  0  0  0  0
  127.3132  140.7143  134.8352 C   0  0  1  0  0  0  0  0  0  0  0  0
  128.7485  140.4902  134.4730 C   0  0  0  0  0  0  0  0  0  0  0  0
  127.6000  144.0700  134.4242 C   0  0  0  0  0  0  0  0  0  0  0  0
  127.5097  145.2720  134.7568 O   0  0  0  0  0  0  0  0  0  0  0  0
  128.7819  143.6479  133.8647 O   0  0  0  0  0  0  0  0  0  0  0  0
  129.2419  144.0456  132.5894 C   0  0  2  0  0  0  0  0  0  0  0  0
  128.2345  143.8436  131.6785 O   0  0  0  0  0  0  0  0  0  0  0  0
  128.5535  144.3363  130.4371 C   0  0  2  0  0  0  0  0  0  0  0  0
  127.4777  143.8920  129.4621 C   0  0  0  0  0  0  0  0  0  0  0  0
  126.6571  144.9577  129.1596 O   0  0  0  0  0  0  0  0  0  0  0  0
  129.8956  143.8856  129.9605 C   0  0  1  0  0  0  0  0  0  0  0  0
  130.8447  144.9106  130.0431 O   0  0  0  0  0  0  0  0  0  0  0  0
  130.3770  142.7386  130.7970 C   0  0  2  0  0  0  0  0  0  0  0  0
  129.5673  141.6074  130.6573 O   0  0  0  0  0  0  0  0  0  0  0  0
  130.4065  143.1205  132.2485 C   0  0  1  0  0  0  0  0  0  0  0  0
  131.6317  143.6646  132.6285 O   0  0  0  0  0  0  0  0  0  0  0  0
  125.9798  135.7723  132.7556 O   0  0  0  0  0  0  0  0  0  0  0  0
  127.1559  135.5521  132.0859 C   0  0  2  0  0  0  0  0  0  0  0  0
  126.8772  135.7947  130.7379 O   0  0  0  0  0  0  0  0  0  0  0  0
  126.9099  134.6996  129.9254 C   0  0  2  0  0  0  0  0  0  0  0  0
  126.2176  135.1136  128.6137 C   0  0  0  0  0  0  0  0  0  0  0  0
  124.8715  135.3883  128.8250 O   0  0  0  0  0  0  0  0  0  0  0  0
  126.0966  133.5676  130.4700 C   0  0  1  0  0  0  0  0  0  0  0  0
  126.1775  132.4686  129.6157 O   0  0  0  0  0  0  0  0  0  0  0  0
  126.3991  133.2347  131.8924 C   0  0  2  0  0  0  0  0  0  0  0  0
  125.3118  133.5592  132.7365 O   0  0  0  0  0  0  0  0  0  0  0  0
  127.5464  134.1093  132.3461 C   0  0  1  0  0  0  0  0  0  0  0  0
  128.6989  133.7435  131.6816 O   0  0  0  0  0  0  0  0  0  0  0  0
  129.5204  132.8748  132.3662 C   0  0  2  0  0  0  0  0  0  0  0  0
  130.2431  133.6537  133.2693 O   0  0  0  0  0  0  0  0  0  0  0  0
  130.8965  132.9439  134.2433 C   0  0  2  0  0  0  0  0  0  0  0  0
  131.7310  133.9693  135.0254 C   0  0  0  0  0  0  0  0  0  0  0  0
  130.8748  134.6002  135.9164 O   0  0  0  0  0  0  0  0  0  0  0  0
  131.8129  131.9350  133.6296 C   0  0  1  0  0  0  0  0  0  0  0  0
  131.3825  130.6494  133.9493 O   0  0  0  0  0  0  0  0  0  0  0  0
  131.8986  132.1260  132.1467 C   0  0  2  0  0  0  0  0  0  0  0  0
  132.6277  133.2290  131.7726 O   0  0  0  0  0  0  0  0  0  0  0  0
  130.5371  132.1862  131.4892 C   0  0  1  0  0  0  0  0  0  0  0  0
  130.0991  130.8731  131.3157 O   0  0  0  0  0  0  0  0  0  0  0  0
  1  2  1  6
  2  3  1  0
  3  4  1  0
  4  5  1  0
  5  6  1  0
  6  7  1  1
  7  8  1  0
  8  9  2  0
  6 10  1  0
 10 11  1  0
 12 11  1  6
 12 13  1  0
 13 14  1  6
 13 15  1  0
 15 16  1  0
 16 17  1  0
 17 18  1  0
 18 19  1  6
 13 20  1  0
 20 21  2  0
 20 22  1  0
 23 22  1  1
 23 24  1  0
 24 25  1  0
 25 26  1  6
 26 27  1  0
 25 28  1  0
 28 29  1  1
 28 30  1  0
 30 31  1  1
 30 32  1  0
 32 33  1  6
  4 34  1  6
 35 34  1  1
 35 36  1  0
 36 37  1  0
 37 38  1  6
 38 39  1  0
 37 40  1  0
 40 41  1  6
 40 42  1  0
 42 43  1  1
 42 44  1  0
 44 45  1  6
 46 45  1  6
 46 47  1  0
 47 48  1  0
 48 49  1  6
 49 50  1  0
 48 51  1  0
 51 52  1  6
 51 53  1  0
 53 54  1  1
 53 55  1  0
 55 56  1  1
  6  1  1  0
 18 12  1  0
 32 23  1  0
 44 35  1  0
 55 46  1  0
 18  1  1  0
  8  4  1  0
M  END
$$$$
