
     RDKit          3D

 56 62  0  0  0  0  0  0  0  0999 V2000
  171.1397  145.3979  117.9361 C   0  0  2  0  0  0  0  0  0  0  0  0
  172.2475  144.3885  118.1631 C   0  0  0  0  0  0  0  0  0  0  0  0
  171.7755  143.3475  119.1296 C   0  0  0  0  0  0  0  0  0  0  0  0
  170.3459  142.8965  118.8893 C   0  0  2  0  0  0  0  0  0  0  0  0
  170.0946  143.2703  117.4130 C   0  0  0  0  0  0  0  0  0  0  0  0
  169.8774  144.7902  117.5035 C   0  0  1  0  0  0  0  0  0  0  0  0
  168.8474  144.7885  118.6361 C   0  0  0  0  0  0  0  0  0  0  0  0
  169.3448  143.7070  119.5755 C   0  0  0  0  0  0  0  0  0  0  0  0
  168.8585  143.6386  120.8139 C   0  0  0  0  0  0  0  0  0  0  0  0
  169.2643  145.1841  116.2241 C   0  0  0  0  0  0  0  0  0  0  0  0
  169.7369  146.4389  115.5589 C   0  0  0  0  0  0  0  0  0  0  0  0
  170.4196  147.2771  116.6164 C   0  0  2  0  0  0  0  0  0  0  0  0
  170.4629  148.7202  116.3698 C   0  0  1  0  0  0  0  0  0  0  0  0
  168.9990  149.2156  116.5398 C   0  0  0  0  0  0  0  0  0  0  0  0
  171.2378  149.4132  117.4839 C   0  0  0  0  0  0  0  0  0  0  0  0
  171.7605  148.4772  118.5192 C   0  0  0  0  0  0  0  0  0  0  0  0
  172.5599  147.4115  117.7842 C   0  0  0  0  0  0  0  0  0  0  0  0
  171.6301  146.5208  116.9933 C   0  0  1  0  0  0  0  0  0  0  0  0
  172.4037  145.8798  115.8832 C   0  0  0  0  0  0  0  0  0  0  0  0
  170.8980  149.2323  115.0896 C   0  0  0  0  0  0  0  0  0  0  0  0
  171.0600  150.4561  114.8907 O   0  0  0  0  0  0  0  0  0  0  0  0
  171.1521  148.3753  114.0462 O   0  0  0  0  0  0  0  0  0  0  0  0
  170.2703  148.1613  112.9631 C   0  0  2  0  0  0  0  0  0  0  0  0
  169.7758  149.3755  112.5554 O   0  0  0  0  0  0  0  0  0  0  0  0
  169.0179  149.2687  111.4153 C   0  0  2  0  0  0  0  0  0  0  0  0
  168.3569  150.6116  111.1601 C   0  0  0  0  0  0  0  0  0  0  0  0
  168.9024  151.1906  110.0342 O   0  0  0  0  0  0  0  0  0  0  0  0
  167.9823  148.1959  111.5046 C   0  0  1  0  0  0  0  0  0  0  0  0
  168.3385  147.0694  110.7548 O   0  0  0  0  0  0  0  0  0  0  0  0
  167.8098  147.7686  112.9310 C   0  0  2  0  0  0  0  0  0  0  0  0
  167.3061  148.7972  113.7328 O   0  0  0  0  0  0  0  0  0  0  0  0
  169.1205  147.3197  113.5090 C   0  0  1  0  0  0  0  0  0  0  0  0
  169.3412  145.9561  113.3260 O   0  0  0  0  0  0  0  0  0  0  0  0
  170.1987  141.5435  118.9177 O   0  0  0  0  0  0  0  0  0  0  0  0
  171.3257  140.7648  118.8575 C   0  0  2  0  0  0  0  0  0  0  0  0
  171.7860  140.8629  117.5414 O   0  0  0  0  0  0  0  0  0  0  0  0
  171.6893  139.7228  116.7991 C   0  0  2  0  0  0  0  0  0  0  0  0
  171.8790  140.1455  115.3306 C   0  0  0  0  0  0  0  0  0  0  0  0
  170.7841  140.8702  114.8745 O   0  0  0  0  0  0  0  0  0  0  0  0
  170.3230  139.1164  116.8702 C   0  0  1  0  0  0  0  0  0  0  0  0
  170.2809  137.9464  116.1129 O   0  0  0  0  0  0  0  0  0  0  0  0
  169.8109  138.9400  118.2603 C   0  0  2  0  0  0  0  0  0  0  0  0
  168.7246  139.8076  118.5196 O   0  0  0  0  0  0  0  0  0  0  0  0
  170.9044  139.3530  119.2199 C   0  0  1  0  0  0  0  0  0  0  0  0
  171.9479  138.4532  119.1485 O   0  0  0  0  0  0  0  0  0  0  0  0
  172.2979  137.8645  120.3440 C   0  0  2  0  0  0  0  0  0  0  0  0
  172.2084  138.8654  121.3109 O   0  0  0  0  0  0  0  0  0  0  0  0
  172.2293  138.4148  122.6056 C   0  0  2  0  0  0  0  0  0  0  0  0
  172.2664  139.6707  123.4894 C   0  0  0  0  0  0  0  0  0  0  0  0
  171.2634  139.5337  124.4381 O   0  0  0  0  0  0  0  0  0  0  0  0
  173.4596  137.6041  122.8575 C   0  0  1  0  0  0  0  0  0  0  0  0
  173.1080  136.2847  123.1322 O   0  0  0  0  0  0  0  0  0  0  0  0
  174.3982  137.6850  121.6935 C   0  0  2  0  0  0  0  0  0  0  0  0
  175.0422  138.8941  121.5856 O   0  0  0  0  0  0  0  0  0  0  0  0
  173.7216  137.3654  120.3783 C   0  0  1  0  0  0  0  0  0  0  0  0
  173.6666  135.9762  120.2641 O   0  0  0  0  0  0  0  0  0  0  0  0
  1  2  1  6
  2  3  1  0
  3  4  1  0
  4  5  1  0
  5  6  1  0
  6  7  1  1
  7  8  1  0
  8  9  2  0
  6 10  1  0
 10 11  1  0
 12 11  1  6
 12 13  1  0
 13 14  1  1
 13 15  1  0
 15 16  1  0
 16 17  1  0
 17 18  1  0
 18 19  1  6
 13 20  1  0
 20 21  2  0
 20 22  1  0
 23 22  1  1
 23 24  1  0
 24 25  1  0
 25 26  1  1
 26 27  1  0
 25 28  1  0
 28 29  1  6
 28 30  1  0
 30 31  1  1
 30 32  1  0
 32 33  1  6
  4 34  1  6
 35 34  1  6
 35 36  1  0
 36 37  1  0
 37 38  1  6
 38 39  1  0
 37 40  1  0
 40 41  1  1
 40 42  1  0
 42 43  1  6
 42 44  1  0
 44 45  1  6
 46 45  1  6
 46 47  1  0
 47 48  1  0
 48 49  1  1
 49 50  1  0
 48 51  1  0
 51 52  1  6
 51 53  1  0
 53 54  1  6
 53 55  1  0
 55 56  1  1
  6  1  1  0
 18 12  1  0
 32 23  1  0
 44 35  1  0
 55 46  1  0
 18  1  1  0
  8  4  1  0
M  END
$$$$
