
     RDKit          3D

 51 56  0  0  0  0  0  0  0  0999 V2000
  125.8882  146.7679  133.1808 C   0  0  1  0  0  0  0  0  0  0  0  0
  126.2745  147.2359  131.8158 C   0  0  0  0  0  0  0  0  0  0  0  0
  126.9364  146.0128  131.2094 C   0  0  2  0  0  0  0  0  0  0  0  0
  126.1251  145.3974  130.1309 C   0  0  0  0  0  0  0  0  0  0  0  0
  127.3119  145.2208  132.3747 C   0  0  1  0  0  0  0  0  0  0  0  0
  126.3506  145.4907  133.3475 O   0  0  0  0  0  0  0  0  0  0  0  0
  127.5093  143.7589  132.2592 C   0  0  2  0  0  0  0  0  0  0  0  0
  126.3590  143.1248  131.4509 C   0  0  0  0  0  0  0  0  0  0  0  0
  127.4509  143.1032  133.6244 C   0  0  0  0  0  0  0  0  0  0  0  0
  127.9945  141.7097  133.2979 C   0  0  0  0  0  0  0  0  0  0  0  0
  128.6906  141.9573  132.0026 C   0  0  1  0  0  0  0  0  0  0  0  0
  128.7238  143.3363  131.8025 O   0  0  0  0  0  0  0  0  0  0  0  0
  130.0644  141.3598  132.0012 C   0  0  2  0  0  0  0  0  0  0  0  0
  130.5959  141.3618  133.4283 C   0  0  0  0  0  0  0  0  0  0  0  0
  130.9657  142.2766  131.2081 C   0  0  0  0  0  0  0  0  0  0  0  0
  131.9464  141.3274  130.6041 C   0  0  1  0  0  0  0  0  0  0  0  0
  133.1234  141.0442  131.5034 C   0  0  0  0  0  0  0  0  0  0  0  0
  131.1115  140.0612  130.5168 C   0  0  2  0  0  0  0  0  0  0  0  0
  130.1731  140.0995  131.5018 O   0  0  0  0  0  0  0  0  0  0  0  0
  131.9606  139.0133  130.6687 O   0  0  0  0  0  0  0  0  0  0  0  0
  131.4924  137.7834  130.1282 C   0  0  2  0  0  0  0  0  0  0  0  0
  132.5291  136.7929  130.5270 C   0  0  0  0  0  0  0  0  0  0  0  0
  132.5721  136.2258  131.8880 C   0  0  1  0  0  0  0  0  0  0  0  0
  133.2879  135.0141  132.2332 C   0  0  0  0  0  0  0  0  0  0  0  0
  134.7240  135.1772  132.6569 C   0  0  0  0  0  0  0  0  0  0  0  0
  135.0748  136.6018  132.8666 C   0  0  2  0  0  0  0  0  0  0  0  0
  136.4183  136.7859  133.5348 C   0  0  0  0  0  0  0  0  0  0  0  0
  133.9465  137.3268  133.4650 C   0  0  1  0  0  0  0  0  0  0  0  0
  132.8271  137.3159  132.7281 O   0  0  0  0  0  0  0  0  0  0  0  0
  133.5993  137.0013  134.8948 C   0  0  1  0  0  0  0  0  0  0  0  0
  134.2680  137.8367  135.9251 C   0  0  0  0  0  0  0  0  0  0  0  0
  132.1284  137.1661  135.0016 C   0  0  0  0  0  0  0  0  0  0  0  0
  131.4926  138.3093  134.5534 O   0  0  0  0  0  0  0  0  0  0  0  0
  131.4447  136.2564  135.5062 O   0  0  0  0  0  0  0  0  0  0  0  0
  131.4907  137.9395  128.6267 C   0  0  0  0  0  0  0  0  0  0  0  0
  131.3111  139.3713  128.1560 C   0  0  1  0  0  0  0  0  0  0  0  0
  130.8746  139.4561  126.8668 O   0  0  0  0  0  0  0  0  0  0  0  0
  131.7954  138.8882  126.0175 C   0  0  0  0  0  0  0  0  0  0  0  0
  130.4164  140.0623  129.1688 C   0  0  1  0  0  0  0  0  0  0  0  0
  129.0669  139.4307  129.1769 C   0  0  0  0  0  0  0  0  0  0  0  0
  126.5035  147.6301  134.2774 C   0  0  1  0  0  0  0  0  0  0  0  0
  127.3288  148.5295  133.6787 O   0  0  0  0  0  0  0  0  0  0  0  0
  127.7781  149.5844  134.4092 C   0  0  1  0  0  0  0  0  0  0  0  0
  129.1796  149.6390  134.2262 O   0  0  0  0  0  0  0  0  0  0  0  0
  127.2548  150.9134  133.8507 C   0  0  0  0  0  0  0  0  0  0  0  0
  128.0201  151.9680  134.3674 O   0  0  0  0  0  0  0  0  0  0  0  0
  127.5227  149.5535  135.8776 C   0  0  2  0  0  0  0  0  0  0  0  0
  128.6942  148.9370  136.6434 C   0  0  0  0  0  0  0  0  0  0  0  0
  126.2091  148.9548  136.2840 C   0  0  0  0  0  0  0  0  0  0  0  0
  125.4817  148.3082  135.1182 C   0  0  2  0  0  0  0  0  0  0  0  0
  124.5158  147.2970  135.7533 C   0  0  0  0  0  0  0  0  0  0  0  0
  1  2  1  6
  2  3  1  0
  3  4  1  6
  3  5  1  0
  5  6  1  1
  5  7  1  0
  7  8  1  6
  7  9  1  0
  9 10  1  0
 11 10  1  1
 11 12  1  0
 11 13  1  0
 13 14  1  1
 13 15  1  0
 15 16  1  0
 16 17  1  1
 16 18  1  0
 18 19  1  1
 18 20  1  0
 20 21  1  0
 21 22  1  6
 23 22  1  6
 23 24  1  0
 24 25  1  0
 25 26  1  0
 26 27  1  1
 26 28  1  0
 28 29  1  6
 28 30  1  0
 30 31  1  1
 30 32  1  0
 32 33  1  0
 32 34  2  0
 21 35  1  0
 35 36  1  0
 36 37  1  6
 37 38  1  0
 36 39  1  0
 39 40  1  1
  1 41  1  0
 41 42  1  6
 42 43  1  0
 43 44  1  1
 43 45  1  0
 45 46  1  0
 43 47  1  0
 47 48  1  1
 47 49  1  0
 49 50  1  0
 50 51  1  1
  6  1  1  0
 12  7  1  0
 19 13  1  0
 29 23  1  0
 50 41  1  0
 39 18  1  0
M  END
$$$$
