
     RDKit          3D

 51 56  0  0  0  0  0  0  0  0999 V2000
  173.2399  146.2708  127.5370 C   0  0  1  0  0  0  0  0  0  0  0  0
  173.3528  145.3872  126.3378 C   0  0  0  0  0  0  0  0  0  0  0  0
  171.9209  145.2950  125.8448 C   0  0  2  0  0  0  0  0  0  0  0  0
  171.7070  146.0167  124.5668 C   0  0  0  0  0  0  0  0  0  0  0  0
  171.1365  145.6554  127.0201 C   0  0  1  0  0  0  0  0  0  0  0  0
  171.9174  146.5584  127.7399 O   0  0  0  0  0  0  0  0  0  0  0  0
  169.7635  146.1875  126.8742 C   0  0  2  0  0  0  0  0  0  0  0  0
  168.7269  145.0866  127.1776 C   0  0  0  0  0  0  0  0  0  0  0  0
  169.5017  146.6023  125.4402 C   0  0  0  0  0  0  0  0  0  0  0  0
  168.2027  147.3961  125.6027 C   0  0  0  0  0  0  0  0  0  0  0  0
  168.2203  147.7007  127.0623 C   0  0  1  0  0  0  0  0  0  0  0  0
  169.4741  147.3368  127.5505 O   0  0  0  0  0  0  0  0  0  0  0  0
  167.9191  149.1456  127.3194 C   0  0  2  0  0  0  0  0  0  0  0  0
  169.2333  149.9132  127.3726 C   0  0  0  0  0  0  0  0  0  0  0  0
  167.3062  149.2516  128.6960 C   0  0  0  0  0  0  0  0  0  0  0  0
  166.3753  150.4090  128.5504 C   0  0  1  0  0  0  0  0  0  0  0  0
  167.0412  151.7373  128.8085 C   0  0  0  0  0  0  0  0  0  0  0  0
  166.0449  150.3335  127.0694 C   0  0  2  0  0  0  0  0  0  0  0  0
  167.0971  149.7582  126.4258 O   0  0  0  0  0  0  0  0  0  0  0  0
  165.8267  151.6040  126.6450 O   0  0  0  0  0  0  0  0  0  0  0  0
  165.0331  151.7118  125.4691 C   0  0  2  0  0  0  0  0  0  0  0  0
  165.0474  153.1660  125.1530 C   0  0  0  0  0  0  0  0  0  0  0  0
  164.0271  154.0838  125.6940 C   0  0  1  0  0  0  0  0  0  0  0  0
  164.3269  155.1849  126.5870 C   0  0  0  0  0  0  0  0  0  0  0  0
  164.6413  156.5092  125.9421 C   0  0  0  0  0  0  0  0  0  0  0  0
  164.3532  156.4928  124.4885 C   0  0  2  0  0  0  0  0  0  0  0  0
  164.4106  157.8667  123.8605 C   0  0  0  0  0  0  0  0  0  0  0  0
  163.1472  155.7017  124.2119 C   0  0  1  0  0  0  0  0  0  0  0  0
  163.2238  154.4206  124.5983 O   0  0  0  0  0  0  0  0  0  0  0  0
  161.8288  156.2752  124.6632 C   0  0  1  0  0  0  0  0  0  0  0  0
  161.2296  157.2947  123.7643 C   0  0  0  0  0  0  0  0  0  0  0  0
  160.9058  155.1198  124.7867 C   0  0  0  0  0  0  0  0  0  0  0  0
  159.6388  155.2583  125.3229 O   0  0  0  0  0  0  0  0  0  0  0  0
  161.2755  153.9958  124.3999 O   0  0  0  0  0  0  0  0  0  0  0  0
  163.6342  151.2883  125.8468 C   0  0  0  0  0  0  0  0  0  0  0  0
  163.5782  150.3082  127.0044 C   0  0  1  0  0  0  0  0  0  0  0  0
  162.4094  149.6074  127.0514 O   0  0  0  0  0  0  0  0  0  0  0  0
  162.0076  149.2720  125.7794 C   0  0  0  0  0  0  0  0  0  0  0  0
  164.8244  149.4462  126.9166 C   0  0  1  0  0  0  0  0  0  0  0  0
  164.8060  148.6437  125.6612 C   0  0  0  0  0  0  0  0  0  0  0  0
  173.7657  145.5945  128.7983 C   0  0  1  0  0  0  0  0  0  0  0  0
  175.0558  145.2349  128.5645 O   0  0  0  0  0  0  0  0  0  0  0  0
  175.8288  144.8680  129.6210 C   0  0  1  0  0  0  0  0  0  0  0  0
  176.4432  143.6432  129.2701 O   0  0  0  0  0  0  0  0  0  0  0  0
  176.9905  145.8472  129.8293 C   0  0  0  0  0  0  0  0  0  0  0  0
  178.0117  145.5582  128.9135 O   0  0  0  0  0  0  0  0  0  0  0  0
  175.1418  144.6619  130.9279 C   0  0  2  0  0  0  0  0  0  0  0  0
  174.7355  143.2015  131.1302 C   0  0  0  0  0  0  0  0  0  0  0  0
  174.0090  145.6039  131.2084 C   0  0  0  0  0  0  0  0  0  0  0  0
  173.6537  146.4577  130.0038 C   0  0  2  0  0  0  0  0  0  0  0  0
  172.2045  146.9085  130.2393 C   0  0  0  0  0  0  0  0  0  0  0  0
  1  2  1  6
  2  3  1  0
  3  4  1  6
  3  5  1  0
  5  6  1  6
  5  7  1  0
  7  8  1  1
  7  9  1  0
  9 10  1  0
 11 10  1  6
 11 12  1  0
 11 13  1  0
 13 14  1  1
 13 15  1  0
 15 16  1  0
 16 17  1  6
 16 18  1  0
 18 19  1  6
 18 20  1  0
 20 21  1  0
 21 22  1  1
 23 22  1  6
 23 24  1  0
 24 25  1  0
 25 26  1  0
 26 27  1  1
 26 28  1  0
 28 29  1  1
 28 30  1  0
 30 31  1  6
 30 32  1  0
 32 33  1  0
 32 34  2  0
 21 35  1  0
 35 36  1  0
 36 37  1  6
 37 38  1  0
 36 39  1  0
 39 40  1  6
  1 41  1  0
 41 42  1  6
 42 43  1  0
 43 44  1  6
 43 45  1  0
 45 46  1  0
 43 47  1  0
 47 48  1  6
 47 49  1  0
 49 50  1  0
 50 51  1  1
  6  1  1  0
 12  7  1  0
 19 13  1  0
 29 23  1  0
 50 41  1  0
 39 18  1  0
M  END
$$$$
