
     RDKit          3D

 51 56  0  0  0  0  0  0  0  0999 V2000
  128.2508  147.4127  136.0071 C   0  0  1  0  0  0  0  0  0  0  0  0
  127.0828  146.5388  136.3290 C   0  0  0  0  0  0  0  0  0  0  0  0
  127.4242  145.2387  135.6253 C   0  0  2  0  0  0  0  0  0  0  0  0
  127.7572  144.1455  136.5708 C   0  0  0  0  0  0  0  0  0  0  0  0
  128.3966  145.6465  134.6182 C   0  0  1  0  0  0  0  0  0  0  0  0
  129.0851  146.7279  135.1658 O   0  0  0  0  0  0  0  0  0  0  0  0
  129.3599  144.6698  134.0635 C   0  0  2  0  0  0  0  0  0  0  0  0
  130.5274  144.4505  135.0471 C   0  0  0  0  0  0  0  0  0  0  0  0
  129.9961  145.2081  132.7975 C   0  0  0  0  0  0  0  0  0  0  0  0
  130.6656  143.9441  132.2518 C   0  0  0  0  0  0  0  0  0  0  0  0
  129.9255  142.8756  132.9828 C   0  0  1  0  0  0  0  0  0  0  0  0
  128.8499  143.4803  133.6310 O   0  0  0  0  0  0  0  0  0  0  0  0
  129.4778  141.7906  132.0519 C   0  0  2  0  0  0  0  0  0  0  0  0
  128.2520  142.2787  131.2915 C   0  0  0  0  0  0  0  0  0  0  0  0
  129.0219  140.6207  132.8918 C   0  0  0  0  0  0  0  0  0  0  0  0
  129.3670  139.4491  132.0340 C   0  0  1  0  0  0  0  0  0  0  0  0
  128.2772  139.0948  131.0536 C   0  0  0  0  0  0  0  0  0  0  0  0
  130.5421  140.0010  131.2449 C   0  0  2  0  0  0  0  0  0  0  0  0
  130.3977  141.3511  131.1517 O   0  0  0  0  0  0  0  0  0  0  0  0
  130.5179  139.4052  130.0257 O   0  0  0  0  0  0  0  0  0  0  0  0
  131.7673  139.3881  129.3455 C   0  0  2  0  0  0  0  0  0  0  0  0
  131.4485  138.8043  128.0142 C   0  0  0  0  0  0  0  0  0  0  0  0
  132.4546  138.7424  126.9373 C   0  0  1  0  0  0  0  0  0  0  0  0
  132.2804  137.9836  125.7151 C   0  0  0  0  0  0  0  0  0  0  0  0
  131.6325  138.7033  124.5616 C   0  0  0  0  0  0  0  0  0  0  0  0
  131.5007  140.1555  124.8264 C   0  0  2  0  0  0  0  0  0  0  0  0
  131.0957  140.9438  123.6016 C   0  0  0  0  0  0  0  0  0  0  0  0
  132.6708  140.6526  125.5616 C   0  0  1  0  0  0  0  0  0  0  0  0
  132.8687  140.0663  126.7505 O   0  0  0  0  0  0  0  0  0  0  0  0
  133.9790  140.7106  124.8160 C   0  0  1  0  0  0  0  0  0  0  0  0
  134.5639  142.0656  124.6480 C   0  0  0  0  0  0  0  0  0  0  0  0
  134.9198  139.8564  125.5825 C   0  0  0  0  0  0  0  0  0  0  0  0
  135.8077  140.3946  126.4958 O   0  0  0  0  0  0  0  0  0  0  0  0
  134.9144  138.6246  125.4033 O   0  0  0  0  0  0  0  0  0  0  0  0
  132.6670  138.4472  130.1098 C   0  0  0  0  0  0  0  0  0  0  0  0
  132.3305  138.3352  131.5857 C   0  0  1  0  0  0  0  0  0  0  0  0
  133.3687  137.8631  132.3332 O   0  0  0  0  0  0  0  0  0  0  0  0
  134.5572  138.3778  131.8703 C   0  0  0  0  0  0  0  0  0  0  0  0
  131.8050  139.6897  132.0249 C   0  0  1  0  0  0  0  0  0  0  0  0
  132.8727  140.7210  131.8957 C   0  0  0  0  0  0  0  0  0  0  0  0
  127.8287  148.6949  135.2984 C   0  0  1  0  0  0  0  0  0  0  0  0
  126.6778  149.1261  135.8795 O   0  0  0  0  0  0  0  0  0  0  0  0
  126.2517  150.3900  135.6161 C   0  0  1  0  0  0  0  0  0  0  0  0
  124.8885  150.2925  135.2517 O   0  0  0  0  0  0  0  0  0  0  0  0
  126.2614  151.2572  136.8810 C   0  0  0  0  0  0  0  0  0  0  0  0
  125.4166  152.3601  136.6945 O   0  0  0  0  0  0  0  0  0  0  0  0
  126.9507  151.1308  134.5275 C   0  0  2  0  0  0  0  0  0  0  0  0
  126.2460  150.9573  133.1813 C   0  0  0  0  0  0  0  0  0  0  0  0
  128.4249  150.8750  134.4266 C   0  0  0  0  0  0  0  0  0  0  0  0
  128.8804  149.7455  135.3339 C   0  0  2  0  0  0  0  0  0  0  0  0
  130.1977  149.2424  134.7254 C   0  0  0  0  0  0  0  0  0  0  0  0
  1  2  1  6
  2  3  1  0
  3  4  1  1
  3  5  1  0
  5  6  1  1
  5  7  1  0
  7  8  1  1
  7  9  1  0
  9 10  1  0
 11 10  1  6
 11 12  1  0
 11 13  1  0
 13 14  1  6
 13 15  1  0
 15 16  1  0
 16 17  1  6
 16 18  1  0
 18 19  1  6
 18 20  1  0
 20 21  1  0
 21 22  1  6
 23 22  1  6
 23 24  1  0
 24 25  1  0
 25 26  1  0
 26 27  1  6
 26 28  1  0
 28 29  1  1
 28 30  1  0
 30 31  1  1
 30 32  1  0
 32 33  1  0
 32 34  2  0
 21 35  1  0
 35 36  1  0
 36 37  1  1
 37 38  1  0
 36 39  1  0
 39 40  1  6
  1 41  1  0
 41 42  1  1
 42 43  1  0
 43 44  1  6
 43 45  1  0
 45 46  1  0
 43 47  1  0
 47 48  1  6
 47 49  1  0
 49 50  1  0
 50 51  1  6
  6  1  1  0
 12  7  1  0
 19 13  1  0
 29 23  1  0
 50 41  1  0
 39 18  1  0
M  END
$$$$
