
     RDKit          3D

 51 56  0  0  0  0  0  0  0  0999 V2000
  131.5972  138.4878  129.3952 C   0  0  1  0  0  0  0  0  0  0  0  0
  130.7581  138.9653  128.2553 C   0  0  0  0  0  0  0  0  0  0  0  0
  129.6206  139.6915  128.9486 C   0  0  2  0  0  0  0  0  0  0  0  0
  129.6782  141.1613  128.7581 C   0  0  0  0  0  0  0  0  0  0  0  0
  129.6377  139.1347  130.2962 C   0  0  1  0  0  0  0  0  0  0  0  0
  130.9692  138.8212  130.5646 O   0  0  0  0  0  0  0  0  0  0  0  0
  129.0642  139.8922  131.4307 C   0  0  2  0  0  0  0  0  0  0  0  0
  128.7032  138.9361  132.5858 C   0  0  0  0  0  0  0  0  0  0  0  0
  127.7584  140.5481  131.0284 C   0  0  0  0  0  0  0  0  0  0  0  0
  127.5424  141.5044  132.2044 C   0  0  0  0  0  0  0  0  0  0  0  0
  128.9163  141.5858  132.7784 C   0  0  1  0  0  0  0  0  0  0  0  0
  129.7819  140.9614  131.8819 O   0  0  0  0  0  0  0  0  0  0  0  0
  129.3127  143.0068  133.0392 C   0  0  2  0  0  0  0  0  0  0  0  0
  129.6257  143.6756  131.7072 C   0  0  0  0  0  0  0  0  0  0  0  0
  130.6042  142.9895  133.8226 C   0  0  0  0  0  0  0  0  0  0  0  0
  130.4895  144.2142  134.6678 C   0  0  1  0  0  0  0  0  0  0  0  0
  130.9933  145.4566  133.9771 C   0  0  0  0  0  0  0  0  0  0  0  0
  128.9811  144.3355  134.8030 C   0  0  2  0  0  0  0  0  0  0  0  0
  128.4072  143.7728  133.7047 O   0  0  0  0  0  0  0  0  0  0  0  0
  128.6953  145.6588  134.9002 O   0  0  0  0  0  0  0  0  0  0  0  0
  127.4523  145.9558  135.5252 C   0  0  2  0  0  0  0  0  0  0  0  0
  127.3251  147.4332  135.3975 C   0  0  0  0  0  0  0  0  0  0  0  0
  126.0267  148.1134  135.5620 C   0  0  1  0  0  0  0  0  0  0  0  0
  125.5594  148.6639  136.8183 C   0  0  0  0  0  0  0  0  0  0  0  0
  125.9258  150.0965  137.1043 C   0  0  0  0  0  0  0  0  0  0  0  0
  126.5135  150.7592  135.9161 C   0  0  2  0  0  0  0  0  0  0  0  0
  126.6540  152.2550  136.0846 C   0  0  0  0  0  0  0  0  0  0  0  0
  125.8460  150.3033  134.6900 C   0  0  1  0  0  0  0  0  0  0  0  0
  125.9316  148.9839  134.4700 O   0  0  0  0  0  0  0  0  0  0  0  0
  124.4225  150.7481  134.4745 C   0  0  1  0  0  0  0  0  0  0  0  0
  124.2535  152.1080  133.9013 C   0  0  0  0  0  0  0  0  0  0  0  0
  123.8194  149.7467  133.5604 C   0  0  0  0  0  0  0  0  0  0  0  0
  123.3802  148.5184  134.0191 O   0  0  0  0  0  0  0  0  0  0  0  0
  123.7035  150.0129  132.3500 O   0  0  0  0  0  0  0  0  0  0  0  0
  127.5959  145.5829  136.9809 C   0  0  0  0  0  0  0  0  0  0  0  0
  128.6055  144.4788  137.2377 C   0  0  1  0  0  0  0  0  0  0  0  0
  128.4176  143.8550  138.4356 O   0  0  0  0  0  0  0  0  0  0  0  0
  127.1108  143.9942  138.8416 C   0  0  0  0  0  0  0  0  0  0  0  0
  128.5668  143.5538  136.0349 C   0  0  1  0  0  0  0  0  0  0  0  0
  127.2284  142.9079  135.9269 C   0  0  0  0  0  0  0  0  0  0  0  0
  131.7754  136.9737  129.3805 C   0  0  1  0  0  0  0  0  0  0  0  0
  132.1020  136.6105  128.1118 O   0  0  0  0  0  0  0  0  0  0  0  0
  132.5829  135.3568  127.8991 C   0  0  1  0  0  0  0  0  0  0  0  0
  131.8386  134.8116  126.8269 O   0  0  0  0  0  0  0  0  0  0  0  0
  134.0314  135.3924  127.3965 C   0  0  0  0  0  0  0  0  0  0  0  0
  134.0650  135.0099  126.0484 O   0  0  0  0  0  0  0  0  0  0  0  0
  132.4980  134.3937  129.0338 C   0  0  2  0  0  0  0  0  0  0  0  0
  131.2147  133.5636  128.9774 C   0  0  0  0  0  0  0  0  0  0  0  0
  132.7234  134.9874  130.3924 C   0  0  0  0  0  0  0  0  0  0  0  0
  132.7930  136.5040  130.3576 C   0  0  2  0  0  0  0  0  0  0  0  0
  132.4533  136.9586  131.7848 C   0  0  0  0  0  0  0  0  0  0  0  0
  1  2  1  6
  2  3  1  0
  3  4  1  1
  3  5  1  0
  5  6  1  1
  5  7  1  0
  7  8  1  1
  7  9  1  0
  9 10  1  0
 11 10  1  6
 11 12  1  0
 11 13  1  0
 13 14  1  6
 13 15  1  0
 15 16  1  0
 16 17  1  6
 16 18  1  0
 18 19  1  6
 18 20  1  0
 20 21  1  0
 21 22  1  1
 23 22  1  1
 23 24  1  0
 24 25  1  0
 25 26  1  0
 26 27  1  1
 26 28  1  0
 28 29  1  1
 28 30  1  0
 30 31  1  6
 30 32  1  0
 32 33  1  0
 32 34  2  0
 21 35  1  0
 35 36  1  0
 36 37  1  1
 37 38  1  0
 36 39  1  0
 39 40  1  6
  1 41  1  0
 41 42  1  6
 42 43  1  0
 43 44  1  6
 43 45  1  0
 45 46  1  0
 43 47  1  0
 47 48  1  1
 47 49  1  0
 49 50  1  0
 50 51  1  1
  6  1  1  0
 12  7  1  0
 19 13  1  0
 29 23  1  0
 50 41  1  0
 39 18  1  0
M  END
$$$$
