
     RDKit          3D

 51 56  0  0  0  0  0  0  0  0999 V2000
  168.6185  148.7250  127.4280 C   0  0  1  0  0  0  0  0  0  0  0  0
  167.9898  149.0150  128.7517 C   0  0  0  0  0  0  0  0  0  0  0  0
  166.5285  149.2198  128.3988 C   0  0  2  0  0  0  0  0  0  0  0  0
  165.6615  148.1193  128.8860 C   0  0  0  0  0  0  0  0  0  0  0  0
  166.5670  149.5355  126.9757 C   0  0  1  0  0  0  0  0  0  0  0  0
  167.6597  148.8412  126.4585 O   0  0  0  0  0  0  0  0  0  0  0  0
  165.3802  149.3073  126.1219 C   0  0  2  0  0  0  0  0  0  0  0  0
  165.7100  149.6257  124.6494 C   0  0  0  0  0  0  0  0  0  0  0  0
  164.2615  150.2579  126.4983 C   0  0  0  0  0  0  0  0  0  0  0  0
  163.0853  149.6312  125.7448 C   0  0  0  0  0  0  0  0  0  0  0  0
  163.5911  148.2501  125.4988 C   0  0  1  0  0  0  0  0  0  0  0  0
  164.7628  148.0959  126.2378 O   0  0  0  0  0  0  0  0  0  0  0  0
  162.5632  147.2224  125.8615 C   0  0  2  0  0  0  0  0  0  0  0  0
  161.8880  147.6480  127.1585 C   0  0  0  0  0  0  0  0  0  0  0  0
  163.2872  145.9307  126.1604 C   0  0  0  0  0  0  0  0  0  0  0  0
  162.3035  144.8968  125.7234 C   0  0  1  0  0  0  0  0  0  0  0  0
  161.3184  144.5265  126.8036 C   0  0  0  0  0  0  0  0  0  0  0  0
  161.5478  145.6509  124.6425 C   0  0  2  0  0  0  0  0  0  0  0  0
  161.5998  146.9796  124.9328 O   0  0  0  0  0  0  0  0  0  0  0  0
  160.2740  145.1825  124.6466 O   0  0  0  0  0  0  0  0  0  0  0  0
  159.5655  145.3710  123.4274 C   0  0  2  0  0  0  0  0  0  0  0  0
  158.1887  144.8936  123.7296 C   0  0  0  0  0  0  0  0  0  0  0  0
  157.1021  145.8330  124.0657 C   0  0  1  0  0  0  0  0  0  0  0  0
  155.7001  145.5654  123.8156 C   0  0  0  0  0  0  0  0  0  0  0  0
  154.9395  144.8730  124.9158 C   0  0  0  0  0  0  0  0  0  0  0  0
  155.7307  144.8001  126.1668 C   0  0  2  0  0  0  0  0  0  0  0  0
  154.9136  144.3480  127.3557 C   0  0  0  0  0  0  0  0  0  0  0  0
  156.5197  146.0253  126.3487 C   0  0  1  0  0  0  0  0  0  0  0  0
  157.3917  146.2747  125.3619 O   0  0  0  0  0  0  0  0  0  0  0  0
  155.7649  147.2891  126.6713 C   0  0  1  0  0  0  0  0  0  0  0  0
  156.2158  148.0150  127.8863 C   0  0  0  0  0  0  0  0  0  0  0  0
  155.9185  148.1664  125.4844 C   0  0  0  0  0  0  0  0  0  0  0  0
  154.8272  148.5808  124.7432 O   0  0  0  0  0  0  0  0  0  0  0  0
  157.0550  148.5418  125.1425 O   0  0  0  0  0  0  0  0  0  0  0  0
  160.2052  144.4617  122.4062 C   0  0  0  0  0  0  0  0  0  0  0  0
  161.6690  144.1648  122.6763 C   0  0  1  0  0  0  0  0  0  0  0  0
  162.3375  143.7359  121.5678 O   0  0  0  0  0  0  0  0  0  0  0  0
  161.6809  144.1463  120.4311 C   0  0  0  0  0  0  0  0  0  0  0  0
  162.2601  145.4022  123.3267 C   0  0  1  0  0  0  0  0  0  0  0  0
  162.2132  146.5519  122.3799 C   0  0  0  0  0  0  0  0  0  0  0  0
  169.7347  149.7092  127.0961 C   0  0  1  0  0  0  0  0  0  0  0  0
  170.6055  149.7105  128.1400 O   0  0  0  0  0  0  0  0  0  0  0  0
  171.8227  150.2915  127.9690 C   0  0  1  0  0  0  0  0  0  0  0  0
  172.0160  151.1626  129.0665 O   0  0  0  0  0  0  0  0  0  0  0  0
  172.9533  149.2611  128.0787 C   0  0  0  0  0  0  0  0  0  0  0  0
  173.1461  148.9245  129.4257 O   0  0  0  0  0  0  0  0  0  0  0  0
  172.0272  151.0898  126.7267 C   0  0  2  0  0  0  0  0  0  0  0  0
  171.7095  152.5697  126.9457 C   0  0  0  0  0  0  0  0  0  0  0  0
  171.3546  150.5464  125.5014 C   0  0  0  0  0  0  0  0  0  0  0  0
  170.4224  149.3898  125.8170 C   0  0  2  0  0  0  0  0  0  0  0  0
  169.4316  149.3358  124.6447 C   0  0  0  0  0  0  0  0  0  0  0  0
  1  2  1  1
  2  3  1  0
  3  4  1  6
  3  5  1  0
  5  6  1  6
  5  7  1  0
  7  8  1  6
  7  9  1  0
  9 10  1  0
 11 10  1  1
 11 12  1  0
 11 13  1  0
 13 14  1  1
 13 15  1  0
 15 16  1  0
 16 17  1  1
 16 18  1  0
 18 19  1  1
 18 20  1  0
 20 21  1  0
 21 22  1  1
 23 22  1  1
 23 24  1  0
 24 25  1  0
 25 26  1  0
 26 27  1  1
 26 28  1  0
 28 29  1  6
 28 30  1  0
 30 31  1  1
 30 32  1  0
 32 33  1  0
 32 34  2  0
 21 35  1  0
 35 36  1  0
 36 37  1  6
 37 38  1  0
 36 39  1  0
 39 40  1  6
  1 41  1  0
 41 42  1  1
 42 43  1  0
 43 44  1  1
 43 45  1  0
 45 46  1  0
 43 47  1  0
 47 48  1  1
 47 49  1  0
 49 50  1  0
 50 51  1  6
  6  1  1  0
 12  7  1  0
 19 13  1  0
 29 23  1  0
 50 41  1  0
 39 18  1  0
M  END
$$$$
