
     RDKit          3D

 51 56  0  0  0  0  0  0  0  0999 V2000
  204.0826  141.1361  131.0946 C   0  0  1  0  0  0  0  0  0  0  0  0
  203.8591  141.5263  132.5191 C   0  0  0  0  0  0  0  0  0  0  0  0
  204.3068  140.2955  133.2852 C   0  0  2  0  0  0  0  0  0  0  0  0
  205.5680  140.5142  134.0345 C   0  0  0  0  0  0  0  0  0  0  0  0
  204.2310  139.2332  132.2892 C   0  0  1  0  0  0  0  0  0  0  0  0
  204.5095  139.8363  131.0636 O   0  0  0  0  0  0  0  0  0  0  0  0
  205.0414  138.0040  132.4370 C   0  0  2  0  0  0  0  0  0  0  0  0
  206.5336  138.3612  132.5936 C   0  0  0  0  0  0  0  0  0  0  0  0
  204.9599  137.1573  131.1826 C   0  0  0  0  0  0  0  0  0  0  0  0
  205.5716  135.8451  131.6806 C   0  0  0  0  0  0  0  0  0  0  0  0
  205.4400  135.9971  133.1582 C   0  0  1  0  0  0  0  0  0  0  0  0
  204.6440  137.1166  133.3944 O   0  0  0  0  0  0  0  0  0  0  0  0
  204.8657  134.7621  133.7823 C   0  0  2  0  0  0  0  0  0  0  0  0
  203.3472  134.8782  133.7795 C   0  0  0  0  0  0  0  0  0  0  0  0
  205.2897  134.7375  135.2320 C   0  0  0  0  0  0  0  0  0  0  0  0
  205.4032  133.2762  135.5138 C   0  0  1  0  0  0  0  0  0  0  0  0
  204.0982  132.6560  135.9457 C   0  0  0  0  0  0  0  0  0  0  0  0
  205.7406  132.7379  134.1338 C   0  0  2  0  0  0  0  0  0  0  0  0
  205.2094  133.5795  133.2054 O   0  0  0  0  0  0  0  0  0  0  0  0
  205.2070  131.4928  134.0508 O   0  0  0  0  0  0  0  0  0  0  0  0
  205.8175  130.6457  133.0845 C   0  0  2  0  0  0  0  0  0  0  0  0
  204.9867  129.4111  133.1066 C   0  0  0  0  0  0  0  0  0  0  0  0
  204.5349  128.7621  131.8613 C   0  0  1  0  0  0  0  0  0  0  0  0
  203.8524  127.4846  131.8209 C   0  0  0  0  0  0  0  0  0  0  0  0
  202.3492  127.5204  131.9093 C   0  0  0  0  0  0  0  0  0  0  0  0
  201.8261  128.9015  131.7869 C   0  0  2  0  0  0  0  0  0  0  0  0
  200.3251  128.9502  131.6132 C   0  0  0  0  0  0  0  0  0  0  0  0
  202.6178  129.6674  130.8156 C   0  0  1  0  0  0  0  0  0  0  0  0
  203.9171  129.7796  131.1248 O   0  0  0  0  0  0  0  0  0  0  0  0
  202.4874  129.2825  129.3645 C   0  0  1  0  0  0  0  0  0  0  0  0
  201.1026  129.2585  128.8275 C   0  0  0  0  0  0  0  0  0  0  0  0
  203.2945  130.2725  128.6091 C   0  0  0  0  0  0  0  0  0  0  0  0
  204.4863  130.7668  129.1065 O   0  0  0  0  0  0  0  0  0  0  0  0
  202.8943  130.6715  127.5000 O   0  0  0  0  0  0  0  0  0  0  0  0
  207.2043  130.3332  133.5926 C   0  0  0  0  0  0  0  0  0  0  0  0
  207.7882  131.4079  134.4914 C   0  0  1  0  0  0  0  0  0  0  0  0
  209.1475  131.3457  134.5802 O   0  0  0  0  0  0  0  0  0  0  0  0
  209.5302  130.1535  135.1495 C   0  0  0  0  0  0  0  0  0  0  0  0
  207.2511  132.7390  133.9979 C   0  0  1  0  0  0  0  0  0  0  0  0
  207.7400  133.0093  132.6165 C   0  0  0  0  0  0  0  0  0  0  0  0
  202.8036  141.2234  130.2693 C   0  0  1  0  0  0  0  0  0  0  0  0
  202.2850  142.4678  130.4451 O   0  0  0  0  0  0  0  0  0  0  0  0
  201.3035  142.8867  129.6030 C   0  0  1  0  0  0  0  0  0  0  0  0
  200.2612  143.3948  130.4131 O   0  0  0  0  0  0  0  0  0  0  0  0
  201.7648  144.0806  128.7581 C   0  0  0  0  0  0  0  0  0  0  0  0
  202.6223  144.8857  129.5206 O   0  0  0  0  0  0  0  0  0  0  0  0
  200.7039  141.8669  128.6957 C   0  0  2  0  0  0  0  0  0  0  0  0
  199.4594  141.2243  129.3096 C   0  0  0  0  0  0  0  0  0  0  0  0
  201.6623  140.8417  128.1670 C   0  0  0  0  0  0  0  0  0  0  0  0
  203.0263  140.9277  128.8292 C   0  0  2  0  0  0  0  0  0  0  0  0
  203.6611  139.5432  128.6317 C   0  0  0  0  0  0  0  0  0  0  0  0
  1  2  1  1
  2  3  1  0
  3  4  1  6
  3  5  1  0
  5  6  1  6
  5  7  1  0
  7  8  1  1
  7  9  1  0
  9 10  1  0
 11 10  1  6
 11 12  1  0
 11 13  1  0
 13 14  1  1
 13 15  1  0
 15 16  1  0
 16 17  1  6
 16 18  1  0
 18 19  1  6
 18 20  1  0
 20 21  1  0
 21 22  1  1
 23 22  1  1
 23 24  1  0
 24 25  1  0
 25 26  1  0
 26 27  1  6
 26 28  1  0
 28 29  1  1
 28 30  1  0
 30 31  1  6
 30 32  1  0
 32 33  1  0
 32 34  2  0
 21 35  1  0
 35 36  1  0
 36 37  1  6
 37 38  1  0
 36 39  1  0
 39 40  1  6
  1 41  1  0
 41 42  1  6
 42 43  1  0
 43 44  1  1
 43 45  1  0
 45 46  1  0
 43 47  1  0
 47 48  1  1
 47 49  1  0
 49 50  1  0
 50 51  1  1
  6  1  1  0
 12  7  1  0
 19 13  1  0
 29 23  1  0
 50 41  1  0
 39 18  1  0
M  END
$$$$
