
     RDKit          3D

 51 56  0  0  0  0  0  0  0  0999 V2000
  116.5562  147.5128  164.5989 C   0  0  1  0  0  0  0  0  0  0  0  0
  115.2367  146.8498  164.3729 C   0  0  0  0  0  0  0  0  0  0  0  0
  115.0107  147.0363  162.8843 C   0  0  2  0  0  0  0  0  0  0  0  0
  115.1187  145.7669  162.1246 C   0  0  0  0  0  0  0  0  0  0  0  0
  115.8815  148.1570  162.5495 C   0  0  1  0  0  0  0  0  0  0  0  0
  116.9675  148.0717  163.4194 O   0  0  0  0  0  0  0  0  0  0  0  0
  116.3647  148.3466  161.1638 C   0  0  2  0  0  0  0  0  0  0  0  0
  116.6890  149.8326  160.9079 C   0  0  0  0  0  0  0  0  0  0  0  0
  115.2786  147.9944  160.1672 C   0  0  0  0  0  0  0  0  0  0  0  0
  116.0857  147.9457  158.8671 C   0  0  0  0  0  0  0  0  0  0  0  0
  117.4756  147.7917  159.3849 C   0  0  1  0  0  0  0  0  0  0  0  0
  117.3869  147.5414  160.7532 O   0  0  0  0  0  0  0  0  0  0  0  0
  118.2061  146.7002  158.6640 C   0  0  2  0  0  0  0  0  0  0  0  0
  117.2461  145.5393  158.4405 C   0  0  0  0  0  0  0  0  0  0  0  0
  119.2911  146.1870  159.5812 C   0  0  0  0  0  0  0  0  0  0  0  0
  120.3620  145.7809  158.6241 C   0  0  1  0  0  0  0  0  0  0  0  0
  120.1993  144.3682  158.1220 C   0  0  0  0  0  0  0  0  0  0  0  0
  120.0887  146.7222  157.4634 C   0  0  2  0  0  0  0  0  0  0  0  0
  118.7642  147.0350  157.4699 O   0  0  0  0  0  0  0  0  0  0  0  0
  120.4481  146.0699  156.3288 O   0  0  0  0  0  0  0  0  0  0  0  0
  120.7482  146.9154  155.2246 C   0  0  2  0  0  0  0  0  0  0  0  0
  120.9865  145.9719  154.0986 C   0  0  0  0  0  0  0  0  0  0  0  0
  121.3247  146.4537  152.7461 C   0  0  1  0  0  0  0  0  0  0  0  0
  121.9827  145.6410  151.7429 C   0  0  0  0  0  0  0  0  0  0  0  0
  121.0894  144.8415  150.8312 C   0  0  0  0  0  0  0  0  0  0  0  0
  119.6658  145.2231  150.9864 C   0  0  2  0  0  0  0  0  0  0  0  0
  118.7769  144.6322  149.9158 C   0  0  0  0  0  0  0  0  0  0  0  0
  119.5422  146.6695  151.2084 C   0  0  1  0  0  0  0  0  0  0  0  0
  120.1770  147.1192  152.2998 O   0  0  0  0  0  0  0  0  0  0  0  0
  119.8586  147.5743  150.0456 C   0  0  1  0  0  0  0  0  0  0  0  0
  118.8196  147.6476  148.9866 C   0  0  0  0  0  0  0  0  0  0  0  0
  120.0686  148.9231  150.6279 C   0  0  0  0  0  0  0  0  0  0  0  0
  119.2475  149.4183  151.6241 O   0  0  0  0  0  0  0  0  0  0  0  0
  121.0050  149.6307  150.2134 O   0  0  0  0  0  0  0  0  0  0  0  0
  122.0308  147.6359  155.5631 C   0  0  0  0  0  0  0  0  0  0  0  0
  122.2620  147.8164  157.0523 C   0  0  1  0  0  0  0  0  0  0  0  0
  123.1462  148.8151  157.3357 O   0  0  0  0  0  0  0  0  0  0  0  0
  123.8404  148.5199  158.4859 C   0  0  0  0  0  0  0  0  0  0  0  0
  120.8977  147.9839  157.6960 C   0  0  1  0  0  0  0  0  0  0  0  0
  120.2452  149.2281  157.1995 C   0  0  0  0  0  0  0  0  0  0  0  0
  116.4666  148.6288  165.6339 C   0  0  1  0  0  0  0  0  0  0  0  0
  116.0158  148.0794  166.7929 O   0  0  0  0  0  0  0  0  0  0  0  0
  116.1148  148.8065  167.9372 C   0  0  1  0  0  0  0  0  0  0  0  0
  114.8444  148.7641  168.5579 O   0  0  0  0  0  0  0  0  0  0  0  0
  117.0664  148.1424  168.9399 C   0  0  0  0  0  0  0  0  0  0  0  0
  116.5546  148.2932  170.2362 O   0  0  0  0  0  0  0  0  0  0  0  0
  116.4950  150.2415  167.8011 C   0  0  2  0  0  0  0  0  0  0  0  0
  115.2659  151.1473  167.7125 C   0  0  0  0  0  0  0  0  0  0  0  0
  117.4899  150.5378  166.7187 C   0  0  0  0  0  0  0  0  0  0  0  0
  117.7609  149.3326  165.8353 C   0  0  2  0  0  0  0  0  0  0  0  0
  118.2981  149.9086  164.5168 C   0  0  0  0  0  0  0  0  0  0  0  0
  1  2  1  6
  2  3  1  0
  3  4  1  6
  3  5  1  0
  5  6  1  1
  5  7  1  0
  7  8  1  1
  7  9  1  0
  9 10  1  0
 11 10  1  6
 11 12  1  0
 11 13  1  0
 13 14  1  6
 13 15  1  0
 15 16  1  0
 16 17  1  6
 16 18  1  0
 18 19  1  6
 18 20  1  0
 20 21  1  0
 21 22  1  6
 23 22  1  1
 23 24  1  0
 24 25  1  0
 25 26  1  0
 26 27  1  6
 26 28  1  0
 28 29  1  1
 28 30  1  0
 30 31  1  6
 30 32  1  0
 32 33  1  0
 32 34  2  0
 21 35  1  0
 35 36  1  0
 36 37  1  6
 37 38  1  0
 36 39  1  0
 39 40  1  6
  1 41  1  0
 41 42  1  1
 42 43  1  0
 43 44  1  1
 43 45  1  0
 45 46  1  0
 43 47  1  0
 47 48  1  6
 47 49  1  0
 49 50  1  0
 50 51  1  6
  6  1  1  0
 12  7  1  0
 19 13  1  0
 29 23  1  0
 50 41  1  0
 39 18  1  0
M  END
$$$$
