
     RDKit          3D

 51 56  0  0  0  0  0  0  0  0999 V2000
  124.0384  144.4043  147.9613 C   0  0  1  0  0  0  0  0  0  0  0  0
  123.5845  145.4740  147.0225 C   0  0  0  0  0  0  0  0  0  0  0  0
  122.1472  145.7130  147.4456 C   0  0  2  0  0  0  0  0  0  0  0  0
  121.9554  147.0266  148.1074 C   0  0  0  0  0  0  0  0  0  0  0  0
  121.7964  144.4874  148.1534 C   0  0  1  0  0  0  0  0  0  0  0  0
  122.9763  144.0326  148.7403 O   0  0  0  0  0  0  0  0  0  0  0  0
  120.7062  144.4820  149.1540 C   0  0  2  0  0  0  0  0  0  0  0  0
  120.3293  143.0341  149.5282 C   0  0  0  0  0  0  0  0  0  0  0  0
  119.4450  145.0884  148.5720 C   0  0  0  0  0  0  0  0  0  0  0  0
  118.6041  145.2739  149.8379 C   0  0  0  0  0  0  0  0  0  0  0  0
  119.6486  145.2151  150.9006 C   0  0  1  0  0  0  0  0  0  0  0  0
  120.8906  145.2471  150.2688 O   0  0  0  0  0  0  0  0  0  0  0  0
  119.4914  146.3381  151.8796 C   0  0  2  0  0  0  0  0  0  0  0  0
  119.3122  147.6365  151.1041 C   0  0  0  0  0  0  0  0  0  0  0  0
  120.7888  146.4711  152.6418 C   0  0  0  0  0  0  0  0  0  0  0  0
  120.3328  146.9446  153.9818 C   0  0  1  0  0  0  0  0  0  0  0  0
  120.1991  148.4445  154.0630 C   0  0  0  0  0  0  0  0  0  0  0  0
  118.9367  146.3486  154.0426 C   0  0  2  0  0  0  0  0  0  0  0  0
  118.4701  146.2227  152.7703 O   0  0  0  0  0  0  0  0  0  0  0  0
  118.1738  147.1959  154.7789 O   0  0  0  0  0  0  0  0  0  0  0  0
  117.0237  146.6023  155.3694 C   0  0  2  0  0  0  0  0  0  0  0  0
  116.3105  147.7441  156.0039 C   0  0  0  0  0  0  0  0  0  0  0  0
  114.8725  147.6739  156.3249 C   0  0  1  0  0  0  0  0  0  0  0  0
  114.2647  146.5863  157.0648 C   0  0  0  0  0  0  0  0  0  0  0  0
  114.2121  146.7366  158.5624 C   0  0  0  0  0  0  0  0  0  0  0  0
  114.5936  148.1035  158.9895 C   0  0  2  0  0  0  0  0  0  0  0  0
  114.3069  148.3663  160.4504 C   0  0  0  0  0  0  0  0  0  0  0  0
  114.0858  149.1003  158.0381 C   0  0  1  0  0  0  0  0  0  0  0  0
  114.5401  148.9531  156.7857 O   0  0  0  0  0  0  0  0  0  0  0  0
  112.5954  149.3192  157.9998 C   0  0  1  0  0  0  0  0  0  0  0  0
  111.9441  149.5411  159.3163 C   0  0  0  0  0  0  0  0  0  0  0  0
  112.3829  150.5066  157.1355 C   0  0  0  0  0  0  0  0  0  0  0  0
  111.3909  150.5340  156.1725 O   0  0  0  0  0  0  0  0  0  0  0  0
  113.1122  151.5055  157.2759 O   0  0  0  0  0  0  0  0  0  0  0  0
  117.5202  145.6577  156.4373 C   0  0  0  0  0  0  0  0  0  0  0  0
  118.9076  145.1021  156.1721 C   0  0  1  0  0  0  0  0  0  0  0  0
  119.1625  143.9559  156.8655 O   0  0  0  0  0  0  0  0  0  0  0  0
  120.0618  143.1762  156.1762 C   0  0  0  0  0  0  0  0  0  0  0  0
  119.0530  144.9713  154.6670 C   0  0  1  0  0  0  0  0  0  0  0  0
  118.0748  143.9777  154.1413 C   0  0  0  0  0  0  0  0  0  0  0  0
  124.5276  143.1635  147.2225 C   0  0  1  0  0  0  0  0  0  0  0  0
  125.2136  143.5819  146.1258 O   0  0  0  0  0  0  0  0  0  0  0  0
  125.9824  142.6808  145.4586 C   0  0  1  0  0  0  0  0  0  0  0  0
  125.6439  142.7913  144.0896 O   0  0  0  0  0  0  0  0  0  0  0  0
  127.4682  143.0540  145.5294 C   0  0  0  0  0  0  0  0  0  0  0  0
  127.8218  143.7740  144.3798 O   0  0  0  0  0  0  0  0  0  0  0  0
  125.8348  141.2468  145.8384 C   0  0  2  0  0  0  0  0  0  0  0  0
  124.8042  140.5322  144.9631 C   0  0  0  0  0  0  0  0  0  0  0  0
  125.6031  140.9943  147.2984 C   0  0  0  0  0  0  0  0  0  0  0  0
  125.3602  142.2757  148.0765 C   0  0  2  0  0  0  0  0  0  0  0  0
  124.6051  141.8446  149.3425 C   0  0  0  0  0  0  0  0  0  0  0  0
  1  2  1  6
  2  3  1  0
  3  4  1  1
  3  5  1  0
  5  6  1  1
  5  7  1  0
  7  8  1  1
  7  9  1  0
  9 10  1  0
 11 10  1  6
 11 12  1  0
 11 13  1  0
 13 14  1  6
 13 15  1  0
 15 16  1  0
 16 17  1  6
 16 18  1  0
 18 19  1  6
 18 20  1  0
 20 21  1  0
 21 22  1  1
 23 22  1  1
 23 24  1  0
 24 25  1  0
 25 26  1  0
 26 27  1  1
 26 28  1  0
 28 29  1  6
 28 30  1  0
 30 31  1  1
 30 32  1  0
 32 33  1  0
 32 34  2  0
 21 35  1  0
 35 36  1  0
 36 37  1  1
 37 38  1  0
 36 39  1  0
 39 40  1  6
  1 41  1  0
 41 42  1  6
 42 43  1  0
 43 44  1  6
 43 45  1  0
 45 46  1  0
 43 47  1  0
 47 48  1  6
 47 49  1  0
 49 50  1  0
 50 51  1  1
  6  1  1  0
 12  7  1  0
 19 13  1  0
 29 23  1  0
 50 41  1  0
 39 18  1  0
M  END
$$$$
