
     RDKit          3D

 51 56  0  0  0  0  0  0  0  0999 V2000
  154.2875  164.9066  122.4575 C   0  0  1  0  0  0  0  0  0  0  0  0
  155.2290  164.3375  123.4680 C   0  0  0  0  0  0  0  0  0  0  0  0
  154.3303  164.0714  124.6611 C   0  0  2  0  0  0  0  0  0  0  0  0
  154.1170  162.6242  124.9065 C   0  0  0  0  0  0  0  0  0  0  0  0
  153.1852  164.9416  124.4206 C   0  0  1  0  0  0  0  0  0  0  0  0
  153.0529  165.0270  123.0355 O   0  0  0  0  0  0  0  0  0  0  0  0
  151.8709  164.6417  125.0307 C   0  0  2  0  0  0  0  0  0  0  0  0
  150.9950  163.8374  124.0486 C   0  0  0  0  0  0  0  0  0  0  0  0
  151.1034  165.9206  125.2996 C   0  0  0  0  0  0  0  0  0  0  0  0
  149.9793  165.3982  126.1983 C   0  0  0  0  0  0  0  0  0  0  0  0
  150.5482  164.1004  126.6629 C   0  0  1  0  0  0  0  0  0  0  0  0
  151.8840  164.0633  126.2665 O   0  0  0  0  0  0  0  0  0  0  0  0
  150.4013  163.9425  128.1454 C   0  0  2  0  0  0  0  0  0  0  0  0
  151.2401  165.0118  128.8328 C   0  0  0  0  0  0  0  0  0  0  0  0
  151.0056  162.6125  128.5302 C   0  0  0  0  0  0  0  0  0  0  0  0
  150.1692  162.1992  129.6953 C   0  0  1  0  0  0  0  0  0  0  0  0
  150.6762  162.7429  131.0074 C   0  0  0  0  0  0  0  0  0  0  0  0
  148.8586  162.8982  129.3766 C   0  0  2  0  0  0  0  0  0  0  0  0
  149.1344  164.0062  128.6358 O   0  0  0  0  0  0  0  0  0  0  0  0
  148.2778  163.2148  130.5617 O   0  0  0  0  0  0  0  0  0  0  0  0
  146.8685  163.4007  130.5042 C   0  0  2  0  0  0  0  0  0  0  0  0
  146.5049  163.8502  131.8756 C   0  0  0  0  0  0  0  0  0  0  0  0
  145.6741  165.0481  132.1006 C   0  0  1  0  0  0  0  0  0  0  0  0
  145.1423  165.4281  133.3939 C   0  0  0  0  0  0  0  0  0  0  0  0
  146.0069  166.3242  134.2412 C   0  0  0  0  0  0  0  0  0  0  0  0
  147.1657  166.8471  133.4795 C   0  0  2  0  0  0  0  0  0  0  0  0
  147.9060  167.9433  134.2114 C   0  0  0  0  0  0  0  0  0  0  0  0
  146.7809  167.1370  132.0922 C   0  0  1  0  0  0  0  0  0  0  0  0
  146.3254  166.0769  131.4102 O   0  0  0  0  0  0  0  0  0  0  0  0
  145.8568  168.3051  131.8635 C   0  0  1  0  0  0  0  0  0  0  0  0
  146.1944  169.5470  132.6053 C   0  0  0  0  0  0  0  0  0  0  0  0
  145.8968  168.5732  130.4045 C   0  0  0  0  0  0  0  0  0  0  0  0
  144.7763  168.4213  129.6086 O   0  0  0  0  0  0  0  0  0  0  0  0
  146.9622  168.9441  129.8783 O   0  0  0  0  0  0  0  0  0  0  0  0
  146.2604  162.0452  130.2366 C   0  0  0  0  0  0  0  0  0  0  0  0
  147.1753  161.0969  129.4832 C   0  0  1  0  0  0  0  0  0  0  0  0
  146.5010  160.0821  128.8709 O   0  0  0  0  0  0  0  0  0  0  0  0
  146.4351  158.9886  129.7027 C   0  0  0  0  0  0  0  0  0  0  0  0
  148.0195  161.9439  128.5485 C   0  0  1  0  0  0  0  0  0  0  0  0
  147.1525  162.6125  127.5378 C   0  0  0  0  0  0  0  0  0  0  0  0
  154.7176  166.2929  121.9907 C   0  0  1  0  0  0  0  0  0  0  0  0
  155.8726  166.1502  121.2880 O   0  0  0  0  0  0  0  0  0  0  0  0
  156.3073  167.1950  120.5347 C   0  0  1  0  0  0  0  0  0  0  0  0
  157.6691  167.3938  120.8612 O   0  0  0  0  0  0  0  0  0  0  0  0
  156.3061  166.8452  119.0416 C   0  0  0  0  0  0  0  0  0  0  0  0
  157.5030  166.1922  118.7164 O   0  0  0  0  0  0  0  0  0  0  0  0
  155.6117  168.5010  120.7166 C   0  0  2  0  0  0  0  0  0  0  0  0
  156.3127  169.3761  121.7567 C   0  0  0  0  0  0  0  0  0  0  0  0
  154.1355  168.4083  120.9640 C   0  0  0  0  0  0  0  0  0  0  0  0
  153.6736  166.9784  121.1838 C   0  0  2  0  0  0  0  0  0  0  0  0
  152.3515  167.0936  121.9570 C   0  0  0  0  0  0  0  0  0  0  0  0
  1  2  1  1
  2  3  1  0
  3  4  1  6
  3  5  1  0
  5  6  1  6
  5  7  1  0
  7  8  1  6
  7  9  1  0
  9 10  1  0
 11 10  1  1
 11 12  1  0
 11 13  1  0
 13 14  1  1
 13 15  1  0
 15 16  1  0
 16 17  1  1
 16 18  1  0
 18 19  1  6
 18 20  1  0
 20 21  1  0
 21 22  1  1
 23 22  1  1
 23 24  1  0
 24 25  1  0
 25 26  1  0
 26 27  1  1
 26 28  1  0
 28 29  1  1
 28 30  1  0
 30 31  1  1
 30 32  1  0
 32 33  1  0
 32 34  2  0
 21 35  1  0
 35 36  1  0
 36 37  1  6
 37 38  1  0
 36 39  1  0
 39 40  1  6
  1 41  1  0
 41 42  1  6
 42 43  1  0
 43 44  1  1
 43 45  1  0
 45 46  1  0
 43 47  1  0
 47 48  1  1
 47 49  1  0
 49 50  1  0
 50 51  1  1
  6  1  1  0
 12  7  1  0
 19 13  1  0
 29 23  1  0
 50 41  1  0
 39 18  1  0
M  END
$$$$
