
     RDKit          3D

 51 56  0  0  0  0  0  0  0  0999 V2000
  129.1900  145.3808  135.2475 C   0  0  1  0  0  0  0  0  0  0  0  0
  129.4016  145.3233  136.7252 C   0  0  0  0  0  0  0  0  0  0  0  0
  129.1709  143.8587  137.0470 C   0  0  2  0  0  0  0  0  0  0  0  0
  130.4178  143.1528  137.4304 C   0  0  0  0  0  0  0  0  0  0  0  0
  128.3896  143.3836  135.9112 C   0  0  1  0  0  0  0  0  0  0  0  0
  128.8054  144.1402  134.8166 O   0  0  0  0  0  0  0  0  0  0  0  0
  128.3804  141.9482  135.5520 C   0  0  2  0  0  0  0  0  0  0  0  0
  127.5564  141.1440  136.5781 C   0  0  0  0  0  0  0  0  0  0  0  0
  129.7806  141.3721  135.6204 C   0  0  0  0  0  0  0  0  0  0  0  0
  129.5748  140.0303  134.9124 C   0  0  0  0  0  0  0  0  0  0  0  0
  128.3042  140.2761  134.1716 C   0  0  1  0  0  0  0  0  0  0  0  0
  128.0164  141.6361  134.2744 O   0  0  0  0  0  0  0  0  0  0  0  0
  128.4135  139.8351  132.7440 C   0  0  2  0  0  0  0  0  0  0  0  0
  127.3088  140.5098  131.9417 C   0  0  0  0  0  0  0  0  0  0  0  0
  128.1316  138.3518  132.6962 C   0  0  0  0  0  0  0  0  0  0  0  0
  128.9862  137.8939  131.5615 C   0  0  1  0  0  0  0  0  0  0  0  0
  128.3003  138.0081  130.2233 C   0  0  0  0  0  0  0  0  0  0  0  0
  130.1024  138.9238  131.6022 C   0  0  2  0  0  0  0  0  0  0  0  0
  129.6023  140.0750  132.1285 O   0  0  0  0  0  0  0  0  0  0  0  0
  130.5316  139.0964  130.3263 O   0  0  0  0  0  0  0  0  0  0  0  0
  131.8549  139.6045  130.2061 C   0  0  2  0  0  0  0  0  0  0  0  0
  132.0326  139.8133  128.7433 C   0  0  0  0  0  0  0  0  0  0  0  0
  132.8452  140.9255  128.2152 C   0  0  1  0  0  0  0  0  0  0  0  0
  134.1268  141.3184  128.7654 C   0  0  0  0  0  0  0  0  0  0  0  0
  135.3436  140.6453  128.1866 C   0  0  0  0  0  0  0  0  0  0  0  0
  135.0103  139.8577  126.9763 C   0  0  2  0  0  0  0  0  0  0  0  0
  136.2340  139.3832  126.2262 C   0  0  0  0  0  0  0  0  0  0  0  0
  133.9865  140.5466  126.1800 C   0  0  1  0  0  0  0  0  0  0  0  0
  132.8312  140.7578  126.8256 O   0  0  0  0  0  0  0  0  0  0  0  0
  134.3982  141.8146  125.4775 C   0  0  1  0  0  0  0  0  0  0  0  0
  134.9568  141.6411  124.1121 C   0  0  0  0  0  0  0  0  0  0  0  0
  133.1768  142.6548  125.4101 C   0  0  0  0  0  0  0  0  0  0  0  0
  132.5403  142.9133  124.2100 O   0  0  0  0  0  0  0  0  0  0  0  0
  132.7090  143.1415  126.4559 O   0  0  0  0  0  0  0  0  0  0  0  0
  132.7854  138.5141  130.6796 C   0  0  0  0  0  0  0  0  0  0  0  0
  132.1646  137.5718  131.6948 C   0  0  1  0  0  0  0  0  0  0  0  0
  133.0932  136.8952  132.4292 O   0  0  0  0  0  0  0  0  0  0  0  0
  133.3230  135.6570  131.8761 C   0  0  0  0  0  0  0  0  0  0  0  0
  131.1863  138.3892  132.5186 C   0  0  1  0  0  0  0  0  0  0  0  0
  131.9131  139.4412  133.2837 C   0  0  0  0  0  0  0  0  0  0  0  0
  128.0911  146.3657  134.8641 C   0  0  1  0  0  0  0  0  0  0  0  0
  127.2786  146.5158  135.9436 O   0  0  0  0  0  0  0  0  0  0  0  0
  126.3914  147.5458  135.9498 C   0  0  1  0  0  0  0  0  0  0  0  0
  125.1344  146.9986  136.2982 O   0  0  0  0  0  0  0  0  0  0  0  0
  126.7084  148.5488  137.0659 C   0  0  0  0  0  0  0  0  0  0  0  0
  125.9750  148.2148  138.2129 O   0  0  0  0  0  0  0  0  0  0  0  0
  126.2110  148.2964  134.6745 C   0  0  2  0  0  0  0  0  0  0  0  0
  125.0585  147.7315  133.8429 C   0  0  0  0  0  0  0  0  0  0  0  0
  127.4565  148.4763  133.8587 C   0  0  0  0  0  0  0  0  0  0  0  0
  128.6259  147.6740  134.4022 C   0  0  2  0  0  0  0  0  0  0  0  0
  129.5857  147.5012  133.2157 C   0  0  0  0  0  0  0  0  0  0  0  0
  1  2  1  1
  2  3  1  0
  3  4  1  6
  3  5  1  0
  5  6  1  6
  5  7  1  0
  7  8  1  1
  7  9  1  0
  9 10  1  0
 11 10  1  1
 11 12  1  0
 11 13  1  0
 13 14  1  6
 13 15  1  0
 15 16  1  0
 16 17  1  6
 16 18  1  0
 18 19  1  1
 18 20  1  0
 20 21  1  0
 21 22  1  6
 23 22  1  1
 23 24  1  0
 24 25  1  0
 25 26  1  0
 26 27  1  6
 26 28  1  0
 28 29  1  1
 28 30  1  0
 30 31  1  6
 30 32  1  0
 32 33  1  0
 32 34  2  0
 21 35  1  0
 35 36  1  0
 36 37  1  1
 37 38  1  0
 36 39  1  0
 39 40  1  6
  1 41  1  0
 41 42  1  1
 42 43  1  0
 43 44  1  1
 43 45  1  0
 45 46  1  0
 43 47  1  0
 47 48  1  6
 47 49  1  0
 49 50  1  0
 50 51  1  6
  6  1  1  0
 12  7  1  0
 19 13  1  0
 29 23  1  0
 50 41  1  0
 39 18  1  0
M  END
$$$$
