
     RDKit          3D

 51 56  0  0  0  0  0  0  0  0999 V2000
  200.7641  139.9151  132.2067 C   0  0  1  0  0  0  0  0  0  0  0  0
  200.1962  138.7774  131.4227 C   0  0  0  0  0  0  0  0  0  0  0  0
  201.3363  137.7767  131.3971 C   0  0  2  0  0  0  0  0  0  0  0  0
  201.0643  136.5765  132.2251 C   0  0  0  0  0  0  0  0  0  0  0  0
  202.5099  138.5966  131.6740 C   0  0  1  0  0  0  0  0  0  0  0  0
  202.0697  139.6293  132.5006 O   0  0  0  0  0  0  0  0  0  0  0  0
  203.7348  137.9902  132.2410 C   0  0  2  0  0  0  0  0  0  0  0  0
  204.6692  139.0859  132.7933 C   0  0  0  0  0  0  0  0  0  0  0  0
  204.5323  137.2886  131.1599 C   0  0  0  0  0  0  0  0  0  0  0  0
  205.5263  136.4902  132.0077 C   0  0  0  0  0  0  0  0  0  0  0  0
  204.8466  136.4823  133.3350 C   0  0  1  0  0  0  0  0  0  0  0  0
  203.5607  136.9871  133.1496 O   0  0  0  0  0  0  0  0  0  0  0  0
  204.8261  135.1061  133.9266 C   0  0  2  0  0  0  0  0  0  0  0  0
  203.6452  134.3435  133.3405 C   0  0  0  0  0  0  0  0  0  0  0  0
  204.5542  135.2435  135.4061 C   0  0  0  0  0  0  0  0  0  0  0  0
  205.3031  134.0891  135.9840 C   0  0  1  0  0  0  0  0  0  0  0  0
  204.4941  132.8167  136.0131 C   0  0  0  0  0  0  0  0  0  0  0  0
  206.4089  133.9147  134.9570 C   0  0  2  0  0  0  0  0  0  0  0  0
  205.9499  134.3595  133.7554 O   0  0  0  0  0  0  0  0  0  0  0  0
  206.7155  132.5930  134.9226 O   0  0  0  0  0  0  0  0  0  0  0  0
  208.0173  132.2955  134.4318 C   0  0  2  0  0  0  0  0  0  0  0  0
  208.0556  130.8086  134.3811 C   0  0  0  0  0  0  0  0  0  0  0  0
  208.9794  130.0903  133.4831 C   0  0  1  0  0  0  0  0  0  0  0  0
  209.5656  128.8020  133.7938 C   0  0  0  0  0  0  0  0  0  0  0  0
  208.7894  127.5863  133.3602 C   0  0  0  0  0  0  0  0  0  0  0  0
  207.6578  127.9462  132.4735 C   0  0  2  0  0  0  0  0  0  0  0  0
  207.0182  126.7444  131.8164 C   0  0  0  0  0  0  0  0  0  0  0  0
  208.0341  129.0508  131.5819 C   0  0  1  0  0  0  0  0  0  0  0  0
  208.3934  130.1763  132.2148 O   0  0  0  0  0  0  0  0  0  0  0  0
  209.0389  128.7508  130.4998 C   0  0  1  0  0  0  0  0  0  0  0  0
  208.8484  127.4631  129.7844 C   0  0  0  0  0  0  0  0  0  0  0  0
  208.9411  129.8733  129.5340 C   0  0  0  0  0  0  0  0  0  0  0  0
  208.2322  131.0233  129.8288 O   0  0  0  0  0  0  0  0  0  0  0  0
  209.5087  129.7833  128.4299 O   0  0  0  0  0  0  0  0  0  0  0  0
  208.9976  132.7934  135.4663 C   0  0  0  0  0  0  0  0  0  0  0  0
  208.4828  133.9572  136.2936 C   0  0  1  0  0  0  0  0  0  0  0  0
  209.4819  134.6693  136.8887 O   0  0  0  0  0  0  0  0  0  0  0  0
  210.6603  133.9615  136.8408 C   0  0  0  0  0  0  0  0  0  0  0  0
  207.5784  134.7771  135.3916 C   0  0  1  0  0  0  0  0  0  0  0  0
  208.3641  135.3539  134.2644 C   0  0  0  0  0  0  0  0  0  0  0  0
  200.7414  141.2208  131.4198 C   0  0  1  0  0  0  0  0  0  0  0  0
  201.2953  140.9768  130.2025 O   0  0  0  0  0  0  0  0  0  0  0  0
  201.1393  141.9044  129.2209 C   0  0  1  0  0  0  0  0  0  0  0  0
  202.4233  142.1418  128.6771 O   0  0  0  0  0  0  0  0  0  0  0  0
  200.3129  141.3491  128.0544 C   0  0  0  0  0  0  0  0  0  0  0  0
  200.8877  141.7562  126.8425 O   0  0  0  0  0  0  0  0  0  0  0  0
  200.5733  143.2255  129.6167 C   0  0  2  0  0  0  0  0  0  0  0  0
  201.6721  144.2350  129.9522 C   0  0  0  0  0  0  0  0  0  0  0  0
  199.5152  143.1738  130.6782 C   0  0  0  0  0  0  0  0  0  0  0  0
  199.3742  141.7905  131.2888 C   0  0  2  0  0  0  0  0  0  0  0  0
  198.7262  142.0176  132.6627 C   0  0  0  0  0  0  0  0  0  0  0  0
  1  2  1  6
  2  3  1  0
  3  4  1  1
  3  5  1  0
  5  6  1  1
  5  7  1  0
  7  8  1  1
  7  9  1  0
  9 10  1  0
 11 10  1  6
 11 12  1  0
 11 13  1  0
 13 14  1  6
 13 15  1  0
 15 16  1  0
 16 17  1  6
 16 18  1  0
 18 19  1  6
 18 20  1  0
 20 21  1  0
 21 22  1  1
 23 22  1  1
 23 24  1  0
 24 25  1  0
 25 26  1  0
 26 27  1  6
 26 28  1  0
 28 29  1  1
 28 30  1  0
 30 31  1  6
 30 32  1  0
 32 33  1  0
 32 34  2  0
 21 35  1  0
 35 36  1  0
 36 37  1  6
 37 38  1  0
 36 39  1  0
 39 40  1  6
  1 41  1  0
 41 42  1  6
 42 43  1  0
 43 44  1  6
 43 45  1  0
 45 46  1  0
 43 47  1  0
 47 48  1  1
 47 49  1  0
 49 50  1  0
 50 51  1  1
  6  1  1  0
 12  7  1  0
 19 13  1  0
 29 23  1  0
 50 41  1  0
 39 18  1  0
M  END
$$$$
