
     RDKit          3D

 51 56  0  0  0  0  0  0  0  0999 V2000
  199.2411  133.5110  131.6789 C   0  0  1  0  0  0  0  0  0  0  0  0
  199.7000  132.2540  131.0151 C   0  0  0  0  0  0  0  0  0  0  0  0
  201.2074  132.4207  130.9718 C   0  0  2  0  0  0  0  0  0  0  0  0
  201.9128  131.4982  131.8946 C   0  0  0  0  0  0  0  0  0  0  0  0
  201.3907  133.8609  131.1074 C   0  0  1  0  0  0  0  0  0  0  0  0
  200.3312  134.3098  131.8944 O   0  0  0  0  0  0  0  0  0  0  0  0
  202.6639  134.4123  131.6218 C   0  0  2  0  0  0  0  0  0  0  0  0
  202.6549  135.9521  131.5357 C   0  0  0  0  0  0  0  0  0  0  0  0
  203.8260  133.9677  130.7563 C   0  0  0  0  0  0  0  0  0  0  0  0
  205.0114  134.3632  131.6409 C   0  0  0  0  0  0  0  0  0  0  0  0
  204.3578  134.4920  132.9750 C   0  0  1  0  0  0  0  0  0  0  0  0
  203.0629  133.9901  132.8566 O   0  0  0  0  0  0  0  0  0  0  0  0
  205.1391  133.7762  134.0341 C   0  0  2  0  0  0  0  0  0  0  0  0
  204.8571  132.2840  133.9201 C   0  0  0  0  0  0  0  0  0  0  0  0
  204.6021  134.2113  135.3773 C   0  0  0  0  0  0  0  0  0  0  0  0
  205.8118  134.1457  136.2490 C   0  0  1  0  0  0  0  0  0  0  0  0
  206.0347  132.7790  136.8463 C   0  0  0  0  0  0  0  0  0  0  0  0
  206.9157  134.3971  135.2360 C   0  0  2  0  0  0  0  0  0  0  0  0
  206.4861  133.9634  134.0195 O   0  0  0  0  0  0  0  0  0  0  0  0
  208.0081  133.7120  135.6594 O   0  0  0  0  0  0  0  0  0  0  0  0
  209.2482  134.2009  135.1623 C   0  0  2  0  0  0  0  0  0  0  0  0
  210.2519  133.2235  135.6644 C   0  0  0  0  0  0  0  0  0  0  0  0
  211.5863  133.1013  135.0475 C   0  0  1  0  0  0  0  0  0  0  0  0
  212.8203  133.4506  135.7220 C   0  0  0  0  0  0  0  0  0  0  0  0
  213.4922  132.3553  136.5077 C   0  0  0  0  0  0  0  0  0  0  0  0
  212.8710  131.0350  136.2485 C   0  0  2  0  0  0  0  0  0  0  0  0
  213.6733  129.8848  136.8132 C   0  0  0  0  0  0  0  0  0  0  0  0
  212.4749  130.9207  134.8390 C   0  0  1  0  0  0  0  0  0  0  0  0
  211.5897  131.8425  134.4354 O   0  0  0  0  0  0  0  0  0  0  0  0
  213.5795  130.8175  133.8192 C   0  0  1  0  0  0  0  0  0  0  0  0
  213.6324  129.5449  133.0549 C   0  0  0  0  0  0  0  0  0  0  0  0
  213.3727  131.9498  132.8825 C   0  0  0  0  0  0  0  0  0  0  0  0
  214.2986  132.9698  132.7627 O   0  0  0  0  0  0  0  0  0  0  0  0
  212.3425  131.9880  132.1850 O   0  0  0  0  0  0  0  0  0  0  0  0
  209.4791  135.5441  135.8115 C   0  0  0  0  0  0  0  0  0  0  0  0
  208.2031  136.2677  136.2016 C   0  0  1  0  0  0  0  0  0  0  0  0
  208.3818  137.6098  136.3645 O   0  0  0  0  0  0  0  0  0  0  0  0
  209.6129  137.8584  136.9253 C   0  0  0  0  0  0  0  0  0  0  0  0
  207.1496  135.8943  135.1748 C   0  0  1  0  0  0  0  0  0  0  0  0
  207.5444  136.3964  133.8285 C   0  0  0  0  0  0  0  0  0  0  0  0
  198.2593  134.2913  130.8118 C   0  0  1  0  0  0  0  0  0  0  0  0
  197.3278  133.4134  130.3536 O   0  0  0  0  0  0  0  0  0  0  0  0
  196.1927  133.9065  129.7910 C   0  0  1  0  0  0  0  0  0  0  0  0
  196.0223  133.2318  128.5595 O   0  0  0  0  0  0  0  0  0  0  0  0
  194.9545  133.5383  130.6176 C   0  0  0  0  0  0  0  0  0  0  0  0
  194.6517  132.1836  130.4226 O   0  0  0  0  0  0  0  0  0  0  0  0
  196.1546  135.3692  129.5052 C   0  0  2  0  0  0  0  0  0  0  0  0
  196.6126  135.6798  128.0795 C   0  0  0  0  0  0  0  0  0  0  0  0
  196.8437  136.2349  130.5174 C   0  0  0  0  0  0  0  0  0  0  0  0
  197.6256  135.4246  131.5364 C   0  0  2  0  0  0  0  0  0  0  0  0
  198.6788  136.3898  132.1004 C   0  0  0  0  0  0  0  0  0  0  0  0
  1  2  1  6
  2  3  1  0
  3  4  1  1
  3  5  1  0
  5  6  1  1
  5  7  1  0
  7  8  1  1
  7  9  1  0
  9 10  1  0
 11 10  1  6
 11 12  1  0
 11 13  1  0
 13 14  1  6
 13 15  1  0
 15 16  1  0
 16 17  1  6
 16 18  1  0
 18 19  1  6
 18 20  1  0
 20 21  1  0
 21 22  1  1
 23 22  1  1
 23 24  1  0
 24 25  1  0
 25 26  1  0
 26 27  1  6
 26 28  1  0
 28 29  1  6
 28 30  1  0
 30 31  1  6
 30 32  1  0
 32 33  1  0
 32 34  2  0
 21 35  1  0
 35 36  1  0
 36 37  1  6
 37 38  1  0
 36 39  1  0
 39 40  1  6
  1 41  1  0
 41 42  1  1
 42 43  1  0
 43 44  1  6
 43 45  1  0
 45 46  1  0
 43 47  1  0
 47 48  1  6
 47 49  1  0
 49 50  1  0
 50 51  1  6
  6  1  1  0
 12  7  1  0
 19 13  1  0
 29 23  1  0
 50 41  1  0
 39 18  1  0
M  END
$$$$
