
     RDKit          3D

 51 56  0  0  0  0  0  0  0  0999 V2000
  174.5105  145.4462  125.5087 C   0  0  1  0  0  0  0  0  0  0  0  0
  173.6236  144.3766  126.0573 C   0  0  0  0  0  0  0  0  0  0  0  0
  172.2472  145.0128  126.0038 C   0  0  2  0  0  0  0  0  0  0  0  0
  171.3712  144.3983  124.9767 C   0  0  0  0  0  0  0  0  0  0  0  0
  172.5384  146.4405  125.9470 C   0  0  1  0  0  0  0  0  0  0  0  0
  173.7498  146.5579  125.2674 O   0  0  0  0  0  0  0  0  0  0  0  0
  171.5531  147.3874  125.3795 C   0  0  2  0  0  0  0  0  0  0  0  0
  172.0822  147.9846  124.0597 C   0  0  0  0  0  0  0  0  0  0  0  0
  171.3555  148.5706  126.3058 C   0  0  0  0  0  0  0  0  0  0  0  0
  170.1037  149.2074  125.6965 C   0  0  0  0  0  0  0  0  0  0  0  0
  169.5533  148.0759  124.8962 C   0  0  1  0  0  0  0  0  0  0  0  0
  170.2744  146.9328  125.2370 O   0  0  0  0  0  0  0  0  0  0  0  0
  168.0851  147.9026  125.1387 C   0  0  2  0  0  0  0  0  0  0  0  0
  167.6460  146.5769  124.5312 C   0  0  0  0  0  0  0  0  0  0  0  0
  167.3599  148.9844  124.3735 C   0  0  0  0  0  0  0  0  0  0  0  0
  166.1660  149.2456  125.2302 C   0  0  1  0  0  0  0  0  0  0  0  0
  165.0071  148.3315  124.9211 C   0  0  0  0  0  0  0  0  0  0  0  0
  166.7026  148.8703  126.6011 C   0  0  2  0  0  0  0  0  0  0  0  0
  167.6802  147.9378  126.4366 O   0  0  0  0  0  0  0  0  0  0  0  0
  165.6576  148.3853  127.3185 O   0  0  0  0  0  0  0  0  0  0  0  0
  165.8194  148.4562  128.7302 C   0  0  2  0  0  0  0  0  0  0  0  0
  164.6174  147.7637  129.2691 C   0  0  0  0  0  0  0  0  0  0  0  0
  163.2528  148.1958  128.9127 C   0  0  1  0  0  0  0  0  0  0  0  0
  162.7644  149.5486  129.0895 C   0  0  0  0  0  0  0  0  0  0  0  0
  162.9655  150.4940  127.9344 C   0  0  0  0  0  0  0  0  0  0  0  0
  163.4299  149.7836  126.7195 C   0  0  2  0  0  0  0  0  0  0  0  0
  163.3954  150.6496  125.4808 C   0  0  0  0  0  0  0  0  0  0  0  0
  162.7820  148.4700  126.6123 C   0  0  1  0  0  0  0  0  0  0  0  0
  163.0181  147.6495  127.6455 O   0  0  0  0  0  0  0  0  0  0  0  0
  161.3091  148.4525  126.2947 C   0  0  1  0  0  0  0  0  0  0  0  0
  160.9458  148.8384  124.9071 C   0  0  0  0  0  0  0  0  0  0  0  0
  160.8548  147.0644  126.5579 C   0  0  0  0  0  0  0  0  0  0  0  0
  161.4765  146.2645  127.4990 O   0  0  0  0  0  0  0  0  0  0  0  0
  159.8912  146.6032  125.9191 O   0  0  0  0  0  0  0  0  0  0  0  0
  165.7718  149.9186  129.1016 C   0  0  0  0  0  0  0  0  0  0  0  0
  166.2292  150.8510  127.9947 C   0  0  1  0  0  0  0  0  0  0  0  0
  166.6019  152.0794  128.4548 O   0  0  0  0  0  0  0  0  0  0  0  0
  166.8343  152.9294  127.3987 C   0  0  0  0  0  0  0  0  0  0  0  0
  167.3062  150.1190  127.2149 C   0  0  1  0  0  0  0  0  0  0  0  0
  168.4865  149.8617  128.0873 C   0  0  0  0  0  0  0  0  0  0  0  0
  175.6079  145.8401  126.4912 C   0  0  1  0  0  0  0  0  0  0  0  0
  176.1956  144.6960  126.9315 O   0  0  0  0  0  0  0  0  0  0  0  0
  177.3774  144.7881  127.5970 C   0  0  1  0  0  0  0  0  0  0  0  0
  177.2402  144.0229  128.7786 O   0  0  0  0  0  0  0  0  0  0  0  0
  178.5112  144.1109  126.8174 C   0  0  0  0  0  0  0  0  0  0  0  0
  178.3400  142.7204  126.8623 O   0  0  0  0  0  0  0  0  0  0  0  0
  177.8270  146.1511  128.0002 C   0  0  2  0  0  0  0  0  0  0  0  0
  177.3704  146.5022  129.4169 C   0  0  0  0  0  0  0  0  0  0  0  0
  177.5105  147.2426  127.0216 C   0  0  0  0  0  0  0  0  0  0  0  0
  176.6063  146.7683  125.8973 C   0  0  2  0  0  0  0  0  0  0  0  0
  175.9373  148.0386  125.3516 C   0  0  0  0  0  0  0  0  0  0  0  0
  1  2  1  1
  2  3  1  0
  3  4  1  6
  3  5  1  0
  5  6  1  6
  5  7  1  0
  7  8  1  6
  7  9  1  0
  9 10  1  0
 11 10  1  1
 11 12  1  0
 11 13  1  0
 13 14  1  6
 13 15  1  0
 15 16  1  0
 16 17  1  6
 16 18  1  0
 18 19  1  6
 18 20  1  0
 20 21  1  0
 21 22  1  1
 23 22  1  6
 23 24  1  0
 24 25  1  0
 25 26  1  0
 26 27  1  6
 26 28  1  0
 28 29  1  1
 28 30  1  0
 30 31  1  6
 30 32  1  0
 32 33  1  0
 32 34  2  0
 21 35  1  0
 35 36  1  0
 36 37  1  1
 37 38  1  0
 36 39  1  0
 39 40  1  1
  1 41  1  0
 41 42  1  6
 42 43  1  0
 43 44  1  1
 43 45  1  0
 45 46  1  0
 43 47  1  0
 47 48  1  1
 47 49  1  0
 49 50  1  0
 50 51  1  1
  6  1  1  0
 12  7  1  0
 19 13  1  0
 29 23  1  0
 50 41  1  0
 39 18  1  0
M  END
$$$$
