
     RDKit          3D

 51 56  0  0  0  0  0  0  0  0999 V2000
  172.1776  146.1353  126.1123 C   0  0  1  0  0  0  0  0  0  0  0  0
  172.1161  144.9081  125.2628 C   0  0  0  0  0  0  0  0  0  0  0  0
  170.7135  144.3875  125.5149 C   0  0  2  0  0  0  0  0  0  0  0  0
  169.8257  144.5383  124.3363 C   0  0  0  0  0  0  0  0  0  0  0  0
  170.3467  145.0088  126.7820 C   0  0  1  0  0  0  0  0  0  0  0  0
  171.0058  146.2368  126.8119 O   0  0  0  0  0  0  0  0  0  0  0  0
  168.9243  145.1962  127.1443 C   0  0  2  0  0  0  0  0  0  0  0  0
  168.3894  143.9500  127.8788 C   0  0  0  0  0  0  0  0  0  0  0  0
  168.0695  145.3273  125.8996 C   0  0  0  0  0  0  0  0  0  0  0  0
  166.7554  145.8287  126.5042 C   0  0  0  0  0  0  0  0  0  0  0  0
  167.2128  146.3409  127.8279 C   0  0  1  0  0  0  0  0  0  0  0  0
  168.6066  146.3395  127.8181 O   0  0  0  0  0  0  0  0  0  0  0  0
  166.6579  147.7049  128.1038 C   0  0  2  0  0  0  0  0  0  0  0  0
  167.5922  148.4227  129.0688 C   0  0  0  0  0  0  0  0  0  0  0  0
  165.3448  147.5309  128.8301 C   0  0  0  0  0  0  0  0  0  0  0  0
  164.5554  148.7084  128.3633 C   0  0  1  0  0  0  0  0  0  0  0  0
  164.7870  149.9422  129.1989 C   0  0  0  0  0  0  0  0  0  0  0  0
  165.1715  148.9495  126.9957 C   0  0  2  0  0  0  0  0  0  0  0  0
  166.4574  148.5042  127.0220 O   0  0  0  0  0  0  0  0  0  0  0  0
  165.1040  150.2841  126.7584 O   0  0  0  0  0  0  0  0  0  0  0  0
  165.1492  150.6483  125.3839 C   0  0  2  0  0  0  0  0  0  0  0  0
  165.1833  152.1360  125.4029 C   0  0  0  0  0  0  0  0  0  0  0  0
  166.1094  152.8759  126.2808 C   0  0  1  0  0  0  0  0  0  0  0  0
  167.0492  153.8706  125.8042 C   0  0  0  0  0  0  0  0  0  0  0  0
  166.5554  155.2923  125.7486 C   0  0  0  0  0  0  0  0  0  0  0  0
  165.2453  155.4440  126.4246 C   0  0  2  0  0  0  0  0  0  0  0  0
  164.8432  156.8890  126.6137 C   0  0  0  0  0  0  0  0  0  0  0  0
  165.1799  154.5899  127.6175 C   0  0  1  0  0  0  0  0  0  0  0  0
  165.3308  153.2811  127.3711 O   0  0  0  0  0  0  0  0  0  0  0  0
  166.0468  154.9748  128.7885 C   0  0  1  0  0  0  0  0  0  0  0  0
  165.7065  156.2634  129.4443 C   0  0  0  0  0  0  0  0  0  0  0  0
  165.9153  153.8694  129.7699 C   0  0  0  0  0  0  0  0  0  0  0  0
  167.0170  153.1667  130.2220 O   0  0  0  0  0  0  0  0  0  0  0  0
  164.7884  153.5626  130.2003 O   0  0  0  0  0  0  0  0  0  0  0  0
  163.8547  150.1783  124.7654 C   0  0  0  0  0  0  0  0  0  0  0  0
  163.2384  148.9789  125.4623 C   0  0  1  0  0  0  0  0  0  0  0  0
  162.3540  148.3031  124.6745 O   0  0  0  0  0  0  0  0  0  0  0  0
  161.9680  149.0898  123.6143 C   0  0  0  0  0  0  0  0  0  0  0  0
  164.3844  148.1339  125.9880 C   0  0  1  0  0  0  0  0  0  0  0  0
  165.1991  147.6119  124.8547 C   0  0  0  0  0  0  0  0  0  0  0  0
  173.3172  146.0755  127.1235 C   0  0  1  0  0  0  0  0  0  0  0  0
  174.3288  145.3623  126.5611 O   0  0  0  0  0  0  0  0  0  0  0  0
  175.5550  145.4028  127.1467 C   0  0  1  0  0  0  0  0  0  0  0  0
  175.9859  144.0624  127.2829 O   0  0  0  0  0  0  0  0  0  0  0  0
  176.5916  146.0592  126.2266 C   0  0  0  0  0  0  0  0  0  0  0  0
  176.9936  145.1391  125.2486 O   0  0  0  0  0  0  0  0  0  0  0  0
  175.6458  146.0375  128.4926 C   0  0  2  0  0  0  0  0  0  0  0  0
  175.4990  145.0090  129.6150 C   0  0  0  0  0  0  0  0  0  0  0  0
  174.7537  147.2251  128.6992 C   0  0  0  0  0  0  0  0  0  0  0  0
  173.7773  147.4226  127.5528 C   0  0  2  0  0  0  0  0  0  0  0  0
  172.6240  148.2494  128.1401 C   0  0  0  0  0  0  0  0  0  0  0  0
  1  2  1  1
  2  3  1  0
  3  4  1  6
  3  5  1  0
  5  6  1  6
  5  7  1  0
  7  8  1  1
  7  9  1  0
  9 10  1  0
 11 10  1  6
 11 12  1  0
 11 13  1  0
 13 14  1  1
 13 15  1  0
 15 16  1  0
 16 17  1  1
 16 18  1  0
 18 19  1  1
 18 20  1  0
 20 21  1  0
 21 22  1  1
 23 22  1  6
 23 24  1  0
 24 25  1  0
 25 26  1  0
 26 27  1  1
 26 28  1  0
 28 29  1  6
 28 30  1  0
 30 31  1  1
 30 32  1  0
 32 33  1  0
 32 34  2  0
 21 35  1  0
 35 36  1  0
 36 37  1  6
 37 38  1  0
 36 39  1  0
 39 40  1  6
  1 41  1  0
 41 42  1  6
 42 43  1  0
 43 44  1  1
 43 45  1  0
 45 46  1  0
 43 47  1  0
 47 48  1  1
 47 49  1  0
 49 50  1  0
 50 51  1  1
  6  1  1  0
 12  7  1  0
 19 13  1  0
 29 23  1  0
 50 41  1  0
 39 18  1  0
M  END
$$$$
