
     RDKit          3D

 51 56  0  0  0  0  0  0  0  0999 V2000
  202.6072  133.0952  131.9854 C   0  0  1  0  0  0  0  0  0  0  0  0
  201.3764  133.2580  131.1546 C   0  0  0  0  0  0  0  0  0  0  0  0
  201.0116  134.7155  131.3656 C   0  0  2  0  0  0  0  0  0  0  0  0
  201.2314  135.5425  130.1540 C   0  0  0  0  0  0  0  0  0  0  0  0
  201.6934  135.0565  132.6086 C   0  0  1  0  0  0  0  0  0  0  0  0
  202.8455  134.2723  132.6415 O   0  0  0  0  0  0  0  0  0  0  0  0
  202.0367  136.4624  132.9173 C   0  0  2  0  0  0  0  0  0  0  0  0
  202.5100  136.5899  134.3796 C   0  0  0  0  0  0  0  0  0  0  0  0
  200.8101  137.3464  132.8128 C   0  0  0  0  0  0  0  0  0  0  0  0
  201.4532  138.7355  132.8405 C   0  0  0  0  0  0  0  0  0  0  0  0
  202.8632  138.4185  132.4729 C   0  0  1  0  0  0  0  0  0  0  0  0
  202.8994  137.0865  132.0639 O   0  0  0  0  0  0  0  0  0  0  0  0
  203.3681  139.3433  131.4080 C   0  0  2  0  0  0  0  0  0  0  0  0
  203.2979  138.6241  130.0674 C   0  0  0  0  0  0  0  0  0  0  0  0
  204.8316  139.6027  131.6777 C   0  0  0  0  0  0  0  0  0  0  0  0
  205.0136  140.9966  131.1760 C   0  0  1  0  0  0  0  0  0  0  0  0
  205.3345  141.0560  129.7036 C   0  0  0  0  0  0  0  0  0  0  0  0
  203.6172  141.5621  131.3716 C   0  0  2  0  0  0  0  0  0  0  0  0
  202.7260  140.5366  131.2919 O   0  0  0  0  0  0  0  0  0  0  0  0
  203.4190  142.4807  130.3924 O   0  0  0  0  0  0  0  0  0  0  0  0
  202.4263  143.4574  130.6833 C   0  0  2  0  0  0  0  0  0  0  0  0
  202.3187  144.2512  129.4289 C   0  0  0  0  0  0  0  0  0  0  0  0
  201.3259  143.9210  128.3891 C   0  0  1  0  0  0  0  0  0  0  0  0
  201.1630  144.6754  127.1628 C   0  0  0  0  0  0  0  0  0  0  0  0
  201.9928  144.2352  125.9854 C   0  0  0  0  0  0  0  0  0  0  0  0
  202.6652  142.9399  126.2429 C   0  0  2  0  0  0  0  0  0  0  0  0
  203.2928  142.3447  125.0030 C   0  0  0  0  0  0  0  0  0  0  0  0
  201.7904  142.0515  127.0189 C   0  0  1  0  0  0  0  0  0  0  0  0
  201.4289  142.5359  128.2151 O   0  0  0  0  0  0  0  0  0  0  0  0
  200.5734  141.5015  126.3209 C   0  0  1  0  0  0  0  0  0  0  0  0
  200.8212  140.8660  125.0014 C   0  0  0  0  0  0  0  0  0  0  0  0
  199.9907  140.5023  127.2505 C   0  0  0  0  0  0  0  0  0  0  0  0
  198.9428  140.8220  128.0943 O   0  0  0  0  0  0  0  0  0  0  0  0
  200.4520  139.3465  127.2761 O   0  0  0  0  0  0  0  0  0  0  0  0
  202.9794  144.3258  131.7874 C   0  0  0  0  0  0  0  0  0  0  0  0
  203.9806  143.6202  132.6837 C   0  0  1  0  0  0  0  0  0  0  0  0
  204.1325  144.2298  133.8940 O   0  0  0  0  0  0  0  0  0  0  0  0
  203.3097  145.3289  133.9764 C   0  0  0  0  0  0  0  0  0  0  0  0
  203.5573  142.1647  132.7621 C   0  0  1  0  0  0  0  0  0  0  0  0
  202.2248  142.0525  133.4196 C   0  0  0  0  0  0  0  0  0  0  0  0
  202.4480  132.0028  133.0371 C   0  0  1  0  0  0  0  0  0  0  0  0
  202.0786  130.8635  132.3938 O   0  0  0  0  0  0  0  0  0  0  0  0
  202.1443  129.6860  133.0700 C   0  0  1  0  0  0  0  0  0  0  0  0
  200.8998  129.0397  132.8844 O   0  0  0  0  0  0  0  0  0  0  0  0
  203.1774  128.7403  132.4452 C   0  0  0  0  0  0  0  0  0  0  0  0
  202.6806  128.2462  131.2311 O   0  0  0  0  0  0  0  0  0  0  0  0
  202.3932  129.7572  134.5382 C   0  0  2  0  0  0  0  0  0  0  0  0
  201.0874  129.7716  135.3341 C   0  0  0  0  0  0  0  0  0  0  0  0
  203.3286  130.8453  134.9743 C   0  0  0  0  0  0  0  0  0  0  0  0
  203.6804  131.7950  133.8426 C   0  0  2  0  0  0  0  0  0  0  0  0
  204.1292  133.0942  134.5280 C   0  0  0  0  0  0  0  0  0  0  0  0
  1  2  1  1
  2  3  1  0
  3  4  1  6
  3  5  1  0
  5  6  1  6
  5  7  1  0
  7  8  1  1
  7  9  1  0
  9 10  1  0
 11 10  1  6
 11 12  1  0
 11 13  1  0
 13 14  1  6
 13 15  1  0
 15 16  1  0
 16 17  1  6
 16 18  1  0
 18 19  1  1
 18 20  1  0
 20 21  1  0
 21 22  1  6
 23 22  1  6
 23 24  1  0
 24 25  1  0
 25 26  1  0
 26 27  1  6
 26 28  1  0
 28 29  1  1
 28 30  1  0
 30 31  1  6
 30 32  1  0
 32 33  1  0
 32 34  2  0
 21 35  1  0
 35 36  1  0
 36 37  1  1
 37 38  1  0
 36 39  1  0
 39 40  1  6
  1 41  1  0
 41 42  1  6
 42 43  1  0
 43 44  1  1
 43 45  1  0
 45 46  1  0
 43 47  1  0
 47 48  1  1
 47 49  1  0
 49 50  1  0
 50 51  1  1
  6  1  1  0
 12  7  1  0
 19 13  1  0
 29 23  1  0
 50 41  1  0
 39 18  1  0
M  END
$$$$
