
     RDKit          3D

 51 56  0  0  0  0  0  0  0  0999 V2000
  175.9811  166.3643  104.8154 C   0  0  1  0  0  0  0  0  0  0  0  0
  174.5533  166.5687  104.4265 C   0  0  0  0  0  0  0  0  0  0  0  0
  173.8418  165.4240  105.1231 C   0  0  2  0  0  0  0  0  0  0  0  0
  172.9903  165.8789  106.2492 C   0  0  0  0  0  0  0  0  0  0  0  0
  174.9100  164.4617  105.3658 C   0  0  1  0  0  0  0  0  0  0  0  0
  176.0688  165.2140  105.5515 O   0  0  0  0  0  0  0  0  0  0  0  0
  174.7875  163.4577  106.4460 C   0  0  2  0  0  0  0  0  0  0  0  0
  175.7139  162.2563  106.1688 C   0  0  0  0  0  0  0  0  0  0  0  0
  173.3851  162.8841  106.4844 C   0  0  0  0  0  0  0  0  0  0  0  0
  173.4085  162.1568  107.8314 C   0  0  0  0  0  0  0  0  0  0  0  0
  174.5628  162.8168  108.5064 C   0  0  1  0  0  0  0  0  0  0  0  0
  174.9354  163.9093  107.7251 O   0  0  0  0  0  0  0  0  0  0  0  0
  174.2138  163.2241  109.9052 C   0  0  2  0  0  0  0  0  0  0  0  0
  173.1859  164.3460  109.8419 C   0  0  0  0  0  0  0  0  0  0  0  0
  175.4525  163.8147  110.5368 C   0  0  0  0  0  0  0  0  0  0  0  0
  175.2937  163.4450  111.9740 C   0  0  1  0  0  0  0  0  0  0  0  0
  174.4867  164.4508  112.7559 C   0  0  0  0  0  0  0  0  0  0  0  0
  174.4692  162.1741  111.8594 C   0  0  2  0  0  0  0  0  0  0  0  0
  173.7336  162.2439  110.7164 O   0  0  0  0  0  0  0  0  0  0  0  0
  173.6824  162.1091  112.9633 O   0  0  0  0  0  0  0  0  0  0  0  0
  173.2303  160.8021  113.2971 C   0  0  2  0  0  0  0  0  0  0  0  0
  172.3080  161.0186  114.4448 C   0  0  0  0  0  0  0  0  0  0  0  0
  171.8875  162.3724  114.8528 C   0  0  1  0  0  0  0  0  0  0  0  0
  170.8724  162.6330  115.8535 C   0  0  0  0  0  0  0  0  0  0  0  0
  171.3459  162.7539  117.2781 C   0  0  0  0  0  0  0  0  0  0  0  0
  172.8244  162.8131  117.3609 C   0  0  2  0  0  0  0  0  0  0  0  0
  173.3232  163.1906  118.7372 C   0  0  0  0  0  0  0  0  0  0  0  0
  173.3721  163.5839  116.2373 C   0  0  1  0  0  0  0  0  0  0  0  0
  173.0792  163.0855  115.0280 O   0  0  0  0  0  0  0  0  0  0  0  0
  173.1196  165.0695  116.2330 C   0  0  1  0  0  0  0  0  0  0  0  0
  174.3210  165.9254  116.0586 C   0  0  0  0  0  0  0  0  0  0  0  0
  172.1701  165.3155  115.1194 C   0  0  0  0  0  0  0  0  0  0  0  0
  172.6110  165.5636  113.8325 O   0  0  0  0  0  0  0  0  0  0  0  0
  170.9457  165.2994  115.3429 O   0  0  0  0  0  0  0  0  0  0  0  0
  174.4407  160.0266  113.7581 C   0  0  0  0  0  0  0  0  0  0  0  0
  175.7479  160.5090  113.1562 C   0  0  1  0  0  0  0  0  0  0  0  0
  176.7367  159.5717  113.2123 O   0  0  0  0  0  0  0  0  0  0  0  0
  177.1223  159.2143  111.9413 C   0  0  0  0  0  0  0  0  0  0  0  0
  175.4347  161.0088  111.7577 C   0  0  1  0  0  0  0  0  0  0  0  0
  174.9488  159.8853  110.9079 C   0  0  0  0  0  0  0  0  0  0  0  0
  176.8888  166.2071  103.6005 C   0  0  1  0  0  0  0  0  0  0  0  0
  176.6362  167.2466  102.7614 O   0  0  0  0  0  0  0  0  0  0  0  0
  177.5070  167.4866  101.7453 C   0  0  1  0  0  0  0  0  0  0  0  0
  176.7337  167.6134  100.5677 O   0  0  0  0  0  0  0  0  0  0  0  0
  178.1983  168.8454  101.9120 C   0  0  0  0  0  0  0  0  0  0  0  0
  179.0339  168.8067  103.0368 O   0  0  0  0  0  0  0  0  0  0  0  0
  178.5490  166.4531  101.4834 C   0  0  2  0  0  0  0  0  0  0  0  0
  178.0941  165.4453  100.4268 C   0  0  0  0  0  0  0  0  0  0  0  0
  179.0979  165.7773  102.7044 C   0  0  0  0  0  0  0  0  0  0  0  0
  178.3294  166.1408  103.9628 C   0  0  2  0  0  0  0  0  0  0  0  0
  178.6078  164.9996  104.9522 C   0  0  0  0  0  0  0  0  0  0  0  0
  1  2  1  6
  2  3  1  0
  3  4  1  1
  3  5  1  0
  5  6  1  1
  5  7  1  0
  7  8  1  6
  7  9  1  0
  9 10  1  0
 11 10  1  6
 11 12  1  0
 11 13  1  0
 13 14  1  6
 13 15  1  0
 15 16  1  0
 16 17  1  1
 16 18  1  0
 18 19  1  6
 18 20  1  0
 20 21  1  0
 21 22  1  1
 23 22  1  1
 23 24  1  0
 24 25  1  0
 25 26  1  0
 26 27  1  1
 26 28  1  0
 28 29  1  6
 28 30  1  0
 30 31  1  6
 30 32  1  0
 32 33  1  0
 32 34  2  0
 21 35  1  0
 35 36  1  0
 36 37  1  6
 37 38  1  0
 36 39  1  0
 39 40  1  6
  1 41  1  0
 41 42  1  6
 42 43  1  0
 43 44  1  6
 43 45  1  0
 45 46  1  0
 43 47  1  0
 47 48  1  6
 47 49  1  0
 49 50  1  0
 50 51  1  1
  6  1  1  0
 12  7  1  0
 19 13  1  0
 29 23  1  0
 50 41  1  0
 39 18  1  0
M  END
$$$$
