
     RDKit          3D

 51 56  0  0  0  0  0  0  0  0999 V2000
  121.8410  167.1683  142.1326 C   0  0  1  0  0  0  0  0  0  0  0  0
  121.4643  168.6075  141.9967 C   0  0  0  0  0  0  0  0  0  0  0  0
  119.9513  168.5570  141.8960 C   0  0  2  0  0  0  0  0  0  0  0  0
  119.2782  169.0996  143.1012 C   0  0  0  0  0  0  0  0  0  0  0  0
  119.6876  167.1861  141.4748 C   0  0  1  0  0  0  0  0  0  0  0  0
  120.7051  166.4120  142.0305 O   0  0  0  0  0  0  0  0  0  0  0  0
  118.3763  166.5554  141.7434 C   0  0  2  0  0  0  0  0  0  0  0  0
  118.2678  166.1560  143.2291 C   0  0  0  0  0  0  0  0  0  0  0  0
  118.2382  165.2607  140.9676 C   0  0  0  0  0  0  0  0  0  0  0  0
  116.7419  164.9829  141.1350 C   0  0  0  0  0  0  0  0  0  0  0  0
  116.2301  166.3297  141.5198 C   0  0  1  0  0  0  0  0  0  0  0  0
  117.2690  167.2404  141.3351 O   0  0  0  0  0  0  0  0  0  0  0  0
  115.0166  166.6979  140.7222 C   0  0  2  0  0  0  0  0  0  0  0  0
  114.7565  165.5999  139.6995 C   0  0  0  0  0  0  0  0  0  0  0  0
  115.3422  167.9460  139.9359 C   0  0  0  0  0  0  0  0  0  0  0  0
  114.0224  168.6389  139.8626 C   0  0  1  0  0  0  0  0  0  0  0  0
  113.1850  168.1900  138.6914 C   0  0  0  0  0  0  0  0  0  0  0  0
  113.3568  168.1345  141.1317 C   0  0  2  0  0  0  0  0  0  0  0  0
  113.8735  166.9106  141.4275 O   0  0  0  0  0  0  0  0  0  0  0  0
  112.0236  168.0737  140.8849 O   0  0  0  0  0  0  0  0  0  0  0  0
  111.2000  168.1207  142.0439 C   0  0  2  0  0  0  0  0  0  0  0  0
  109.8222  167.9173  141.5192 C   0  0  0  0  0  0  0  0  0  0  0  0
  108.8521  169.0262  141.4469 C   0  0  1  0  0  0  0  0  0  0  0  0
  107.5591  168.9241  140.8007 C   0  0  0  0  0  0  0  0  0  0  0  0
  106.4101  168.4671  141.6606 C   0  0  0  0  0  0  0  0  0  0  0  0
  106.7812  168.4275  143.0949 C   0  0  2  0  0  0  0  0  0  0  0  0
  105.5921  168.2247  144.0061 C   0  0  0  0  0  0  0  0  0  0  0  0
  107.6709  169.5476  143.4272 C   0  0  1  0  0  0  0  0  0  0  0  0
  108.8203  169.5659  142.7380 O   0  0  0  0  0  0  0  0  0  0  0  0
  107.0702  170.9296  143.4216 C   0  0  1  0  0  0  0  0  0  0  0  0
  105.7907  171.0775  144.1616 C   0  0  0  0  0  0  0  0  0  0  0  0
  108.0953  171.8190  144.0218 C   0  0  0  0  0  0  0  0  0  0  0  0
  108.6599  171.5459  145.2542 O   0  0  0  0  0  0  0  0  0  0  0  0
  108.4598  172.8373  143.4058 O   0  0  0  0  0  0  0  0  0  0  0  0
  111.3260  169.5135  142.6123 C   0  0  0  0  0  0  0  0  0  0  0  0
  112.6471  170.1910  142.2964 C   0  0  1  0  0  0  0  0  0  0  0  0
  112.9344  171.2178  143.1464 O   0  0  0  0  0  0  0  0  0  0  0  0
  112.7173  170.8293  144.4478 C   0  0  0  0  0  0  0  0  0  0  0  0
  113.7034  169.1022  142.2469 C   0  0  1  0  0  0  0  0  0  0  0  0
  113.8466  168.4648  143.5862 C   0  0  0  0  0  0  0  0  0  0  0  0
  122.7966  166.7200  141.0324 C   0  0  1  0  0  0  0  0  0  0  0  0
  123.9918  167.3294  141.2524 O   0  0  0  0  0  0  0  0  0  0  0  0
  125.0829  166.8810  140.5767 C   0  0  1  0  0  0  0  0  0  0  0  0
  125.7078  168.0174  140.0121 O   0  0  0  0  0  0  0  0  0  0  0  0
  126.1270  166.2899  141.5321 C   0  0  0  0  0  0  0  0  0  0  0  0
  126.7463  167.3273  142.2428 O   0  0  0  0  0  0  0  0  0  0  0  0
  124.8469  165.9087  139.4715 C   0  0  2  0  0  0  0  0  0  0  0  0
  124.6987  166.6112  138.1211 C   0  0  0  0  0  0  0  0  0  0  0  0
  123.7444  164.9217  139.7150 C   0  0  0  0  0  0  0  0  0  0  0  0
  122.9459  165.2421  140.9664 C   0  0  2  0  0  0  0  0  0  0  0  0
  121.5895  164.5486  140.7707 C   0  0  0  0  0  0  0  0  0  0  0  0
  1  2  1  6
  2  3  1  0
  3  4  1  1
  3  5  1  0
  5  6  1  1
  5  7  1  0
  7  8  1  1
  7  9  1  0
  9 10  1  0
 11 10  1  6
 11 12  1  0
 11 13  1  0
 13 14  1  6
 13 15  1  0
 15 16  1  0
 16 17  1  6
 16 18  1  0
 18 19  1  1
 18 20  1  0
 20 21  1  0
 21 22  1  6
 23 22  1  1
 23 24  1  0
 24 25  1  0
 25 26  1  0
 26 27  1  1
 26 28  1  0
 28 29  1  6
 28 30  1  0
 30 31  1  1
 30 32  1  0
 32 33  1  0
 32 34  2  0
 21 35  1  0
 35 36  1  0
 36 37  1  1
 37 38  1  0
 36 39  1  0
 39 40  1  1
  1 41  1  0
 41 42  1  1
 42 43  1  0
 43 44  1  6
 43 45  1  0
 45 46  1  0
 43 47  1  0
 47 48  1  6
 47 49  1  0
 49 50  1  0
 50 51  1  6
  6  1  1  0
 12  7  1  0
 19 13  1  0
 29 23  1  0
 50 41  1  0
 39 18  1  0
M  END
$$$$
