
     RDKit          3D

 51 56  0  0  0  0  0  0  0  0999 V2000
  199.8339  137.5398  132.0461 C   0  0  1  0  0  0  0  0  0  0  0  0
  199.4515  136.3911  131.1709 C   0  0  0  0  0  0  0  0  0  0  0  0
  199.9177  135.1857  131.9656 C   0  0  2  0  0  0  0  0  0  0  0  0
  198.7921  134.3877  132.5098 C   0  0  0  0  0  0  0  0  0  0  0  0
  200.9137  135.7448  132.8719 C   0  0  1  0  0  0  0  0  0  0  0  0
  200.5022  137.0504  133.1355 O   0  0  0  0  0  0  0  0  0  0  0  0
  201.2453  135.0597  134.1409 C   0  0  2  0  0  0  0  0  0  0  0  0
  200.0171  135.0346  135.0734 C   0  0  0  0  0  0  0  0  0  0  0  0
  202.3103  135.8267  134.8989 C   0  0  0  0  0  0  0  0  0  0  0  0
  202.7098  134.7951  135.9572 C   0  0  0  0  0  0  0  0  0  0  0  0
  202.2012  133.5321  135.3490 C   0  0  1  0  0  0  0  0  0  0  0  0
  201.8143  133.8233  134.0420 O   0  0  0  0  0  0  0  0  0  0  0  0
  203.2368  132.4506  135.3967 C   0  0  2  0  0  0  0  0  0  0  0  0
  202.7135  131.2434  134.6299 C   0  0  0  0  0  0  0  0  0  0  0  0
  203.3817  132.0132  136.8353 C   0  0  0  0  0  0  0  0  0  0  0  0
  204.8202  131.6233  136.9143 C   0  0  1  0  0  0  0  0  0  0  0  0
  205.0652  130.1898  136.5150 C   0  0  0  0  0  0  0  0  0  0  0  0
  205.4239  132.5151  135.8428 C   0  0  2  0  0  0  0  0  0  0  0  0
  204.4659  132.7712  134.9106 O   0  0  0  0  0  0  0  0  0  0  0  0
  206.4774  131.8433  135.3128 O   0  0  0  0  0  0  0  0  0  0  0  0
  207.4541  132.6656  134.6853 C   0  0  2  0  0  0  0  0  0  0  0  0
  208.4174  131.6982  134.0927 C   0  0  0  0  0  0  0  0  0  0  0  0
  208.4756  131.4594  132.6382 C   0  0  1  0  0  0  0  0  0  0  0  0
  209.6144  130.8690  131.9641 C   0  0  0  0  0  0  0  0  0  0  0  0
  209.6178  129.3684  131.8354 C   0  0  0  0  0  0  0  0  0  0  0  0
  208.3148  128.7819  132.2285 C   0  0  2  0  0  0  0  0  0  0  0  0
  208.1953  127.3179  131.8709 C   0  0  0  0  0  0  0  0  0  0  0  0
  207.2098  129.6482  131.7980 C   0  0  1  0  0  0  0  0  0  0  0  0
  207.2411  130.8846  132.3147 O   0  0  0  0  0  0  0  0  0  0  0  0
  206.9419  129.7386  130.3178 C   0  0  1  0  0  0  0  0  0  0  0  0
  206.8602  128.4414  129.5988 C   0  0  0  0  0  0  0  0  0  0  0  0
  205.6530  130.4617  130.1832 C   0  0  0  0  0  0  0  0  0  0  0  0
  204.7499  130.1532  129.1826 O   0  0  0  0  0  0  0  0  0  0  0  0
  205.3723  131.3691  130.9877 O   0  0  0  0  0  0  0  0  0  0  0  0
  208.1330  133.4504  135.7817 C   0  0  0  0  0  0  0  0  0  0  0  0
  207.2606  133.6874  137.0010 C   0  0  1  0  0  0  0  0  0  0  0  0
  207.6893  134.7313  137.7665 O   0  0  0  0  0  0  0  0  0  0  0  0
  209.0383  134.9288  137.5842 C   0  0  0  0  0  0  0  0  0  0  0  0
  205.8317  133.8168  136.5058 C   0  0  1  0  0  0  0  0  0  0  0  0
  205.6981  135.0158  135.6312 C   0  0  0  0  0  0  0  0  0  0  0  0
  200.7618  138.5181  131.3344 C   0  0  1  0  0  0  0  0  0  0  0  0
  200.1700  138.8665  130.1611 O   0  0  0  0  0  0  0  0  0  0  0  0
  200.6620  139.9340  129.4779 C   0  0  1  0  0  0  0  0  0  0  0  0
  200.8441  139.5125  128.1400 O   0  0  0  0  0  0  0  0  0  0  0  0
  199.6329  141.0682  129.3981 C   0  0  0  0  0  0  0  0  0  0  0  0
  198.5164  140.6323  128.6713 O   0  0  0  0  0  0  0  0  0  0  0  0
  201.9588  140.5020  129.9451 C   0  0  2  0  0  0  0  0  0  0  0  0
  203.1465  139.8875  129.2030 C   0  0  0  0  0  0  0  0  0  0  0  0
  202.1602  140.4938  131.4312 C   0  0  0  0  0  0  0  0  0  0  0  0
  201.0780  139.7150  132.1582 C   0  0  2  0  0  0  0  0  0  0  0  0
  201.6983  139.3207  133.5067 C   0  0  0  0  0  0  0  0  0  0  0  0
  1  2  1  6
  2  3  1  0
  3  4  1  1
  3  5  1  0
  5  6  1  1
  5  7  1  0
  7  8  1  1
  7  9  1  0
  9 10  1  0
 11 10  1  6
 11 12  1  0
 11 13  1  0
 13 14  1  6
 13 15  1  0
 15 16  1  0
 16 17  1  6
 16 18  1  0
 18 19  1  6
 18 20  1  0
 20 21  1  0
 21 22  1  1
 23 22  1  1
 23 24  1  0
 24 25  1  0
 25 26  1  0
 26 27  1  6
 26 28  1  0
 28 29  1  6
 28 30  1  0
 30 31  1  1
 30 32  1  0
 32 33  1  0
 32 34  2  0
 21 35  1  0
 35 36  1  0
 36 37  1  6
 37 38  1  0
 36 39  1  0
 39 40  1  6
  1 41  1  0
 41 42  1  6
 42 43  1  0
 43 44  1  6
 43 45  1  0
 45 46  1  0
 43 47  1  0
 47 48  1  6
 47 49  1  0
 49 50  1  0
 50 51  1  1
  6  1  1  0
 12  7  1  0
 19 13  1  0
 29 23  1  0
 50 41  1  0
 39 18  1  0
M  END
$$$$
