
     RDKit          3D

 51 56  0  0  0  0  0  0  0  0999 V2000
  131.4208  160.2773  159.0881 C   0  0  1  0  0  0  0  0  0  0  0  0
  130.5266  161.4735  159.0530 C   0  0  0  0  0  0  0  0  0  0  0  0
  130.7864  162.0545  157.6758 C   0  0  2  0  0  0  0  0  0  0  0  0
  129.6321  161.8927  156.7584 C   0  0  0  0  0  0  0  0  0  0  0  0
  132.0833  161.4948  157.3136 C   0  0  1  0  0  0  0  0  0  0  0  0
  132.1467  160.2453  157.9285 O   0  0  0  0  0  0  0  0  0  0  0  0
  132.4804  161.3735  155.8933 C   0  0  2  0  0  0  0  0  0  0  0  0
  133.5453  160.2705  155.7267 C   0  0  0  0  0  0  0  0  0  0  0  0
  133.1440  162.6491  155.4142 C   0  0  0  0  0  0  0  0  0  0  0  0
  133.1565  162.4164  153.9010 C   0  0  0  0  0  0  0  0  0  0  0  0
  132.1187  161.3557  153.7542 C   0  0  1  0  0  0  0  0  0  0  0  0
  131.4739  161.2283  154.9834 O   0  0  0  0  0  0  0  0  0  0  0  0
  131.1588  161.6837  152.6517 C   0  0  2  0  0  0  0  0  0  0  0  0
  129.8181  161.0333  152.9661 C   0  0  0  0  0  0  0  0  0  0  0  0
  131.6656  161.0289  151.3883 C   0  0  0  0  0  0  0  0  0  0  0  0
  131.2132  161.9751  150.3264 C   0  0  1  0  0  0  0  0  0  0  0  0
  129.8134  161.6921  149.8419 C   0  0  0  0  0  0  0  0  0  0  0  0
  131.1840  163.2850  151.0956 C   0  0  2  0  0  0  0  0  0  0  0  0
  130.9508  163.0052  152.4070 O   0  0  0  0  0  0  0  0  0  0  0  0
  130.1941  164.0411  150.5567 O   0  0  0  0  0  0  0  0  0  0  0  0
  130.3285  165.4409  150.7724 C   0  0  2  0  0  0  0  0  0  0  0  0
  129.0808  166.0180  150.2022 C   0  0  0  0  0  0  0  0  0  0  0  0
  128.6256  165.6795  148.8405 C   0  0  1  0  0  0  0  0  0  0  0  0
  127.3188  165.1293  148.5418 C   0  0  0  0  0  0  0  0  0  0  0  0
  126.2185  166.1192  148.2627 C   0  0  0  0  0  0  0  0  0  0  0  0
  126.7451  167.4968  148.1171 C   0  0  2  0  0  0  0  0  0  0  0  0
  125.7157  168.4684  147.5861 C   0  0  0  0  0  0  0  0  0  0  0  0
  128.0413  167.4819  147.4269 C   0  0  1  0  0  0  0  0  0  0  0  0
  128.9938  166.7754  148.0514 O   0  0  0  0  0  0  0  0  0  0  0  0
  128.0385  167.1209  145.9639 C   0  0  1  0  0  0  0  0  0  0  0  0
  127.0137  167.8056  145.1346 C   0  0  0  0  0  0  0  0  0  0  0  0
  129.3921  167.4618  145.4602 C   0  0  0  0  0  0  0  0  0  0  0  0
  130.3074  166.4823  145.1215 O   0  0  0  0  0  0  0  0  0  0  0  0
  129.7174  168.6571  145.3375 O   0  0  0  0  0  0  0  0  0  0  0  0
  131.5159  165.8954  149.9585 C   0  0  0  0  0  0  0  0  0  0  0  0
  132.5568  164.8146  149.7299 C   0  0  1  0  0  0  0  0  0  0  0  0
  133.7812  165.3169  149.4014 O   0  0  0  0  0  0  0  0  0  0  0  0
  134.2214  166.1713  150.3853 C   0  0  0  0  0  0  0  0  0  0  0  0
  132.5517  163.9264  150.9607 C   0  0  1  0  0  0  0  0  0  0  0  0
  132.9823  164.7041  152.1566 C   0  0  0  0  0  0  0  0  0  0  0  0
  132.4063  160.3327  160.2502 C   0  0  1  0  0  0  0  0  0  0  0  0
  132.5074  161.6306  160.6419 O   0  0  0  0  0  0  0  0  0  0  0  0
  133.1055  161.9046  161.8316 C   0  0  1  0  0  0  0  0  0  0  0  0
  134.0602  162.9184  161.5836 O   0  0  0  0  0  0  0  0  0  0  0  0
  132.1157  162.5283  162.8233 C   0  0  0  0  0  0  0  0  0  0  0  0
  132.6491  163.7250  163.3216 O   0  0  0  0  0  0  0  0  0  0  0  0
  133.8147  160.7831  162.5112 C   0  0  2  0  0  0  0  0  0  0  0  0
  135.2980  160.7438  162.1407 C   0  0  0  0  0  0  0  0  0  0  0  0
  133.1649  159.4389  162.3700 C   0  0  0  0  0  0  0  0  0  0  0  0
  132.0110  159.4540  161.3827 C   0  0  2  0  0  0  0  0  0  0  0  0
  131.8448  157.9956  160.9308 C   0  0  0  0  0  0  0  0  0  0  0  0
  1  2  1  6
  2  3  1  0
  3  4  1  6
  3  5  1  0
  5  6  1  6
  5  7  1  0
  7  8  1  1
  7  9  1  0
  9 10  1  0
 11 10  1  1
 11 12  1  0
 11 13  1  0
 13 14  1  1
 13 15  1  0
 15 16  1  0
 16 17  1  1
 16 18  1  0
 18 19  1  1
 18 20  1  0
 20 21  1  0
 21 22  1  6
 23 22  1  1
 23 24  1  0
 24 25  1  0
 25 26  1  0
 26 27  1  6
 26 28  1  0
 28 29  1  1
 28 30  1  0
 30 31  1  6
 30 32  1  0
 32 33  1  0
 32 34  2  0
 21 35  1  0
 35 36  1  0
 36 37  1  1
 37 38  1  0
 36 39  1  0
 39 40  1  1
  1 41  1  0
 41 42  1  1
 42 43  1  0
 43 44  1  6
 43 45  1  0
 45 46  1  0
 43 47  1  0
 47 48  1  6
 47 49  1  0
 49 50  1  0
 50 51  1  6
  6  1  1  0
 12  7  1  0
 19 13  1  0
 29 23  1  0
 50 41  1  0
 39 18  1  0
M  END
$$$$
