
     RDKit          3D

 51 56  0  0  0  0  0  0  0  0999 V2000
  205.0960  130.0256  133.5089 C   0  0  1  0  0  0  0  0  0  0  0  0
  206.0774  130.8580  134.2675 C   0  0  0  0  0  0  0  0  0  0  0  0
  205.5242  132.2626  134.1155 C   0  0  2  0  0  0  0  0  0  0  0  0
  204.9741  132.8023  135.3829 C   0  0  0  0  0  0  0  0  0  0  0  0
  204.6682  132.1616  132.9394 C   0  0  1  0  0  0  0  0  0  0  0  0
  204.1734  130.8584  132.9361 O   0  0  0  0  0  0  0  0  0  0  0  0
  203.5583  133.1181  132.7322 C   0  0  2  0  0  0  0  0  0  0  0  0
  202.4221  132.8472  133.7393 C   0  0  0  0  0  0  0  0  0  0  0  0
  202.9369  132.9258  131.3633 C   0  0  0  0  0  0  0  0  0  0  0  0
  202.0804  134.1903  131.2556 C   0  0  0  0  0  0  0  0  0  0  0  0
  202.7085  135.0642  132.2879 C   0  0  1  0  0  0  0  0  0  0  0  0
  203.8852  134.4426  132.7026 O   0  0  0  0  0  0  0  0  0  0  0  0
  202.9627  136.4403  131.7530 C   0  0  2  0  0  0  0  0  0  0  0  0
  203.5247  136.3167  130.3430 C   0  0  0  0  0  0  0  0  0  0  0  0
  204.0499  137.0685  132.5928 C   0  0  0  0  0  0  0  0  0  0  0  0
  203.6882  138.5162  132.5648 C   0  0  1  0  0  0  0  0  0  0  0  0
  204.2652  139.2452  131.3774 C   0  0  0  0  0  0  0  0  0  0  0  0
  202.1827  138.4376  132.3766 C   0  0  2  0  0  0  0  0  0  0  0  0
  201.8942  137.2810  131.7197 O   0  0  0  0  0  0  0  0  0  0  0  0
  201.8134  139.5302  131.6613 O   0  0  0  0  0  0  0  0  0  0  0  0
  200.4496  139.9071  131.8100 C   0  0  2  0  0  0  0  0  0  0  0  0
  200.2761  141.0305  130.8493 C   0  0  0  0  0  0  0  0  0  0  0  0
  200.5182  140.8554  129.4048 C   0  0  1  0  0  0  0  0  0  0  0  0
  199.8114  141.5899  128.3749 C   0  0  0  0  0  0  0  0  0  0  0  0
  200.4207  142.8971  127.9408 C   0  0  0  0  0  0  0  0  0  0  0  0
  201.7816  143.0791  128.4983 C   0  0  2  0  0  0  0  0  0  0  0  0
  202.5195  144.2465  127.8833 C   0  0  0  0  0  0  0  0  0  0  0  0
  202.5007  141.7989  128.5284 C   0  0  1  0  0  0  0  0  0  0  0  0
  201.9113  140.8493  129.2681 O   0  0  0  0  0  0  0  0  0  0  0  0
  202.9121  141.2088  127.2043 C   0  0  1  0  0  0  0  0  0  0  0  0
  203.6457  142.1238  126.2926 C   0  0  0  0  0  0  0  0  0  0  0  0
  203.7691  140.0419  127.5300 C   0  0  0  0  0  0  0  0  0  0  0  0
  205.1132  140.1883  127.8200 O   0  0  0  0  0  0  0  0  0  0  0  0
  203.2718  138.9010  127.5441 O   0  0  0  0  0  0  0  0  0  0  0  0
  200.2897  140.4175  133.2217 C   0  0  0  0  0  0  0  0  0  0  0  0
  201.2749  139.8187  134.2090 C   0  0  1  0  0  0  0  0  0  0  0  0
  200.8619  139.9272  135.5040 O   0  0  0  0  0  0  0  0  0  0  0  0
  199.9836  140.9777  135.6339 C   0  0  0  0  0  0  0  0  0  0  0  0
  201.5499  138.3970  133.7543 C   0  0  1  0  0  0  0  0  0  0  0  0
  200.3037  137.5836  133.8304 C   0  0  0  0  0  0  0  0  0  0  0  0
  205.7619  129.2324  132.3899 C   0  0  1  0  0  0  0  0  0  0  0  0
  206.7253  128.4562  132.9533 O   0  0  0  0  0  0  0  0  0  0  0  0
  207.2700  127.4564  132.2103 C   0  0  1  0  0  0  0  0  0  0  0  0
  208.6742  127.5854  132.3210 O   0  0  0  0  0  0  0  0  0  0  0  0
  206.9515  126.0802  132.8073 C   0  0  0  0  0  0  0  0  0  0  0  0
  207.6003  125.9482  134.0428 O   0  0  0  0  0  0  0  0  0  0  0  0
  206.9395  127.4311  130.7568 C   0  0  2  0  0  0  0  0  0  0  0  0
  207.9817  128.1809  129.9258 C   0  0  0  0  0  0  0  0  0  0  0  0
  205.5408  127.8494  130.4135 C   0  0  0  0  0  0  0  0  0  0  0  0
  204.7954  128.4154  131.6094 C   0  0  2  0  0  0  0  0  0  0  0  0
  203.6763  129.2839  131.0159 C   0  0  0  0  0  0  0  0  0  0  0  0
  1  2  1  6
  2  3  1  0
  3  4  1  1
  3  5  1  0
  5  6  1  1
  5  7  1  0
  7  8  1  1
  7  9  1  0
  9 10  1  0
 11 10  1  6
 11 12  1  0
 11 13  1  0
 13 14  1  6
 13 15  1  0
 15 16  1  0
 16 17  1  6
 16 18  1  0
 18 19  1  6
 18 20  1  0
 20 21  1  0
 21 22  1  6
 23 22  1  1
 23 24  1  0
 24 25  1  0
 25 26  1  0
 26 27  1  6
 26 28  1  0
 28 29  1  6
 28 30  1  0
 30 31  1  6
 30 32  1  0
 32 33  1  0
 32 34  2  0
 21 35  1  0
 35 36  1  0
 36 37  1  1
 37 38  1  0
 36 39  1  0
 39 40  1  6
  1 41  1  0
 41 42  1  1
 42 43  1  0
 43 44  1  6
 43 45  1  0
 45 46  1  0
 43 47  1  0
 47 48  1  6
 47 49  1  0
 49 50  1  0
 50 51  1  6
  6  1  1  0
 12  7  1  0
 19 13  1  0
 29 23  1  0
 50 41  1  0
 39 18  1  0
M  END
$$$$
