
     RDKit          3D

 51 56  0  0  0  0  0  0  0  0999 V2000
  204.4769  134.3412  136.8682 C   0  0  1  0  0  0  0  0  0  0  0  0
  203.2206  135.1146  137.1031 C   0  0  0  0  0  0  0  0  0  0  0  0
  202.1338  134.0865  136.8505 C   0  0  2  0  0  0  0  0  0  0  0  0
  201.4253  133.6850  138.0903 C   0  0  0  0  0  0  0  0  0  0  0  0
  202.8069  133.0770  136.0418 C   0  0  1  0  0  0  0  0  0  0  0  0
  204.1388  133.0817  136.4534 O   0  0  0  0  0  0  0  0  0  0  0  0
  202.3017  131.6868  135.9998 C   0  0  2  0  0  0  0  0  0  0  0  0
  201.7885  131.2607  137.3904 C   0  0  0  0  0  0  0  0  0  0  0  0
  203.4230  130.7214  135.6716 C   0  0  0  0  0  0  0  0  0  0  0  0
  202.6275  129.4500  135.3639 C   0  0  0  0  0  0  0  0  0  0  0  0
  201.2695  130.0055  135.0972 C   0  0  1  0  0  0  0  0  0  0  0  0
  201.3912  131.3923  135.0270 O   0  0  0  0  0  0  0  0  0  0  0  0
  200.6849  129.4323  133.8426 C   0  0  2  0  0  0  0  0  0  0  0  0
  199.3096  130.0483  133.6226 C   0  0  0  0  0  0  0  0  0  0  0  0
  200.4604  127.9560  134.0704 C   0  0  0  0  0  0  0  0  0  0  0  0
  200.6696  127.3805  132.7092 C   0  0  1  0  0  0  0  0  0  0  0  0
  199.4168  127.3817  131.8697 C   0  0  0  0  0  0  0  0  0  0  0  0
  201.6331  128.3907  132.1099 C   0  0  2  0  0  0  0  0  0  0  0  0
  201.4169  129.5940  132.7079 O   0  0  0  0  0  0  0  0  0  0  0  0
  201.3829  128.4370  130.7767 O   0  0  0  0  0  0  0  0  0  0  0  0
  202.4650  128.9093  129.9831 C   0  0  2  0  0  0  0  0  0  0  0  0
  201.9031  128.9787  128.6067 C   0  0  0  0  0  0  0  0  0  0  0  0
  202.7556  129.2694  127.4385 C   0  0  1  0  0  0  0  0  0  0  0  0
  202.3804  128.9657  126.0722 C   0  0  0  0  0  0  0  0  0  0  0  0
  201.6311  130.0375  125.3250 C   0  0  0  0  0  0  0  0  0  0  0  0
  201.6195  131.3185  126.0699 C   0  0  2  0  0  0  0  0  0  0  0  0
  201.1055  132.4760  125.2443 C   0  0  0  0  0  0  0  0  0  0  0  0
  202.9021  131.5274  126.7541 C   0  0  1  0  0  0  0  0  0  0  0  0
  203.2182  130.5747  127.6422 O   0  0  0  0  0  0  0  0  0  0  0  0
  204.1036  131.8167  125.8919 C   0  0  1  0  0  0  0  0  0  0  0  0
  204.1773  133.1904  125.3317 C   0  0  0  0  0  0  0  0  0  0  0  0
  205.2877  131.5678  126.7511 C   0  0  0  0  0  0  0  0  0  0  0  0
  206.5750  131.6554  126.2541 O   0  0  0  0  0  0  0  0  0  0  0  0
  205.1245  131.2725  127.9492 O   0  0  0  0  0  0  0  0  0  0  0  0
  203.5410  127.8519  130.0392 C   0  0  0  0  0  0  0  0  0  0  0  0
  203.5206  127.0184  131.3076 C   0  0  1  0  0  0  0  0  0  0  0  0
  204.7091  126.3972  131.5544 O   0  0  0  0  0  0  0  0  0  0  0  0
  205.5576  126.5570  130.4838 C   0  0  0  0  0  0  0  0  0  0  0  0
  203.0413  127.9250  132.4266 C   0  0  1  0  0  0  0  0  0  0  0  0
  204.0159  129.0310  132.6442 C   0  0  0  0  0  0  0  0  0  0  0  0
  205.3420  134.9702  135.7815 C   0  0  1  0  0  0  0  0  0  0  0  0
  204.5140  135.6234  134.9236 O   0  0  0  0  0  0  0  0  0  0  0  0
  205.0586  136.4931  134.0320 C   0  0  1  0  0  0  0  0  0  0  0  0
  204.5245  136.1644  132.7641 O   0  0  0  0  0  0  0  0  0  0  0  0
  204.5914  137.9297  134.2969 C   0  0  0  0  0  0  0  0  0  0  0  0
  205.3404  138.8146  133.5089 O   0  0  0  0  0  0  0  0  0  0  0  0
  206.5437  136.4936  133.9018 C   0  0  2  0  0  0  0  0  0  0  0  0
  207.0150  135.5574  132.7880 C   0  0  0  0  0  0  0  0  0  0  0  0
  207.2960  136.2692  135.1796 C   0  0  0  0  0  0  0  0  0  0  0  0
  206.3827  135.8803  136.3289 C   0  0  2  0  0  0  0  0  0  0  0  0
  207.2865  135.1574  137.3385 C   0  0  0  0  0  0  0  0  0  0  0  0
  1  2  1  6
  2  3  1  0
  3  4  1  1
  3  5  1  0
  5  6  1  1
  5  7  1  0
  7  8  1  1
  7  9  1  0
  9 10  1  0
 11 10  1  6
 11 12  1  0
 11 13  1  0
 13 14  1  6
 13 15  1  0
 15 16  1  0
 16 17  1  6
 16 18  1  0
 18 19  1  1
 18 20  1  0
 20 21  1  0
 21 22  1  6
 23 22  1  1
 23 24  1  0
 24 25  1  0
 25 26  1  0
 26 27  1  6
 26 28  1  0
 28 29  1  6
 28 30  1  0
 30 31  1  1
 30 32  1  0
 32 33  1  0
 32 34  2  0
 21 35  1  0
 35 36  1  0
 36 37  1  1
 37 38  1  0
 36 39  1  0
 39 40  1  6
  1 41  1  0
 41 42  1  6
 42 43  1  0
 43 44  1  6
 43 45  1  0
 45 46  1  0
 43 47  1  0
 47 48  1  6
 47 49  1  0
 49 50  1  0
 50 51  1  1
  6  1  1  0
 12  7  1  0
 19 13  1  0
 29 23  1  0
 50 41  1  0
 39 18  1  0
M  END
$$$$
