
     RDKit          3D

 51 56  0  0  0  0  0  0  0  0999 V2000
  133.7686  139.9941  126.8027 C   0  0  1  0  0  0  0  0  0  0  0  0
  134.8639  140.4854  127.6918 C   0  0  0  0  0  0  0  0  0  0  0  0
  134.2006  140.5367  129.0554 C   0  0  2  0  0  0  0  0  0  0  0  0
  134.7113  139.4960  129.9807 C   0  0  0  0  0  0  0  0  0  0  0  0
  132.7787  140.5872  128.7362 C   0  0  1  0  0  0  0  0  0  0  0  0
  132.6270  139.8743  127.5479 O   0  0  0  0  0  0  0  0  0  0  0  0
  131.7699  140.1374  129.7210 C   0  0  2  0  0  0  0  0  0  0  0  0
  131.4294  138.6498  129.4983 C   0  0  0  0  0  0  0  0  0  0  0  0
  130.4647  140.8826  129.5259 C   0  0  0  0  0  0  0  0  0  0  0  0
  129.7244  140.5084  130.8128 C   0  0  0  0  0  0  0  0  0  0  0  0
  130.8489  140.0605  131.6838 C   0  0  1  0  0  0  0  0  0  0  0  0
  132.0376  140.3903  131.0350 O   0  0  0  0  0  0  0  0  0  0  0  0
  130.7639  140.6833  133.0437 C   0  0  2  0  0  0  0  0  0  0  0  0
  132.1423  140.6291  133.6892 C   0  0  0  0  0  0  0  0  0  0  0  0
  129.8607  139.8190  133.8917 C   0  0  0  0  0  0  0  0  0  0  0  0
  129.2231  140.8119  134.8056 C   0  0  1  0  0  0  0  0  0  0  0  0
  130.0367  141.0778  136.0472 C   0  0  0  0  0  0  0  0  0  0  0  0
  129.2601  142.0648  133.9471 C   0  0  2  0  0  0  0  0  0  0  0  0
  130.3145  141.9659  133.0923 O   0  0  0  0  0  0  0  0  0  0  0  0
  129.3902  143.1209  134.7896 O   0  0  0  0  0  0  0  0  0  0  0  0
  128.9449  144.3641  134.2604 C   0  0  2  0  0  0  0  0  0  0  0  0
  129.3032  145.3556  135.3109 C   0  0  0  0  0  0  0  0  0  0  0  0
  128.5340  146.6013  135.4913 C   0  0  1  0  0  0  0  0  0  0  0  0
  128.6150  147.4333  136.6749 C   0  0  0  0  0  0  0  0  0  0  0  0
  129.6599  148.5180  136.6660 C   0  0  0  0  0  0  0  0  0  0  0  0
  130.2690  148.6809  135.3248 C   0  0  2  0  0  0  0  0  0  0  0  0
  131.1280  149.9200  135.2139 C   0  0  0  0  0  0  0  0  0  0  0  0
  129.2590  148.4942  134.2750 C   0  0  1  0  0  0  0  0  0  0  0  0
  128.6695  147.2906  134.2807 O   0  0  0  0  0  0  0  0  0  0  0  0
  128.2030  149.5603  134.1379 C   0  0  1  0  0  0  0  0  0  0  0  0
  128.4046  150.5262  133.0275 C   0  0  0  0  0  0  0  0  0  0  0  0
  126.9219  148.8379  133.9398 C   0  0  0  0  0  0  0  0  0  0  0  0
  126.6530  148.1458  132.7733 O   0  0  0  0  0  0  0  0  0  0  0  0
  126.0645  148.8517  134.8420 O   0  0  0  0  0  0  0  0  0  0  0  0
  127.4428  144.2735  134.1394 C   0  0  0  0  0  0  0  0  0  0  0  0
  126.9242  142.8604  133.9440 C   0  0  1  0  0  0  0  0  0  0  0  0
  125.6718  142.8236  133.4058 O   0  0  0  0  0  0  0  0  0  0  0  0
  125.7481  142.7748  132.0334 C   0  0  0  0  0  0  0  0  0  0  0  0
  127.9736  142.1092  133.1451 C   0  0  1  0  0  0  0  0  0  0  0  0
  128.1184  142.7144  131.7911 C   0  0  0  0  0  0  0  0  0  0  0  0
  133.4780  140.9636  125.6625 C   0  0  1  0  0  0  0  0  0  0  0  0
  134.6322  141.1360  124.9652 O   0  0  0  0  0  0  0  0  0  0  0  0
  134.5702  141.7314  123.7446 C   0  0  1  0  0  0  0  0  0  0  0  0
  135.5532  142.7484  123.7372 O   0  0  0  0  0  0  0  0  0  0  0  0
  134.9924  140.7658  122.6304 C   0  0  0  0  0  0  0  0  0  0  0  0
  135.3716  141.5001  121.4982 O   0  0  0  0  0  0  0  0  0  0  0  0
  133.2753  142.3624  123.3601 C   0  0  2  0  0  0  0  0  0  0  0  0
  133.2365  143.8460  123.7290 C   0  0  0  0  0  0  0  0  0  0  0  0
  132.0488  141.6358  123.8257 C   0  0  0  0  0  0  0  0  0  0  0  0
  132.3754  140.4998  124.7793 C   0  0  2  0  0  0  0  0  0  0  0  0
  131.0845  140.2537  125.5742 C   0  0  0  0  0  0  0  0  0  0  0  0
  1  2  1  1
  2  3  1  0
  3  4  1  1
  3  5  1  0
  5  6  1  6
  5  7  1  0
  7  8  1  1
  7  9  1  0
  9 10  1  0
 11 10  1  6
 11 12  1  0
 11 13  1  0
 13 14  1  1
 13 15  1  0
 15 16  1  0
 16 17  1  1
 16 18  1  0
 18 19  1  6
 18 20  1  0
 20 21  1  0
 21 22  1  1
 23 22  1  1
 23 24  1  0
 24 25  1  0
 25 26  1  0
 26 27  1  1
 26 28  1  0
 28 29  1  1
 28 30  1  0
 30 31  1  6
 30 32  1  0
 32 33  1  0
 32 34  2  0
 21 35  1  0
 35 36  1  0
 36 37  1  6
 37 38  1  0
 36 39  1  0
 39 40  1  6
  1 41  1  0
 41 42  1  6
 42 43  1  0
 43 44  1  1
 43 45  1  0
 45 46  1  0
 43 47  1  0
 47 48  1  1
 47 49  1  0
 49 50  1  0
 50 51  1  1
  6  1  1  0
 12  7  1  0
 19 13  1  0
 29 23  1  0
 50 41  1  0
 39 18  1  0
M  END
$$$$
