
     RDKit          3D

 51 56  0  0  0  0  0  0  0  0999 V2000
  148.6995  166.1375  128.0162 C   0  0  1  0  0  0  0  0  0  0  0  0
  147.2617  166.1272  127.6110 C   0  0  0  0  0  0  0  0  0  0  0  0
  147.1729  164.9204  126.6957 C   0  0  2  0  0  0  0  0  0  0  0  0
  146.4063  163.8013  127.2955 C   0  0  0  0  0  0  0  0  0  0  0  0
  148.5548  164.7108  126.2802 C   0  0  1  0  0  0  0  0  0  0  0  0
  149.3446  165.1317  127.3491 O   0  0  0  0  0  0  0  0  0  0  0  0
  149.0079  163.3804  125.8174 C   0  0  2  0  0  0  0  0  0  0  0  0
  148.8746  162.3442  126.9519 C   0  0  0  0  0  0  0  0  0  0  0  0
  150.4831  163.4100  125.4709 C   0  0  0  0  0  0  0  0  0  0  0  0
  150.6320  162.0776  124.7316 C   0  0  0  0  0  0  0  0  0  0  0  0
  149.2166  161.7777  124.3701 C   0  0  1  0  0  0  0  0  0  0  0  0
  148.4619  162.9138  124.6572 O   0  0  0  0  0  0  0  0  0  0  0  0
  149.0966  161.3766  122.9317 C   0  0  2  0  0  0  0  0  0  0  0  0
  149.3056  162.6111  122.0646 C   0  0  0  0  0  0  0  0  0  0  0  0
  147.6748  160.9243  122.6956 C   0  0  0  0  0  0  0  0  0  0  0  0
  147.8356  159.8795  121.6420 C   0  0  1  0  0  0  0  0  0  0  0  0
  147.8258  160.4454  120.2441 C   0  0  0  0  0  0  0  0  0  0  0  0
  149.2418  159.3841  121.9341 C   0  0  2  0  0  0  0  0  0  0  0  0
  149.9430  160.4012  122.5052 O   0  0  0  0  0  0  0  0  0  0  0  0
  149.7827  159.0003  120.7500 O   0  0  0  0  0  0  0  0  0  0  0  0
  150.8504  158.0663  120.8571 C   0  0  2  0  0  0  0  0  0  0  0  0
  151.3367  157.9082  119.4594 C   0  0  0  0  0  0  0  0  0  0  0  0
  152.6544  158.4196  119.0379 C   0  0  1  0  0  0  0  0  0  0  0  0
  153.0235  158.6523  117.6561 C   0  0  0  0  0  0  0  0  0  0  0  0
  152.7289  160.0211  117.1011 C   0  0  0  0  0  0  0  0  0  0  0  0
  152.3171  160.9667  118.1652 C   0  0  2  0  0  0  0  0  0  0  0  0
  152.2633  162.4011  117.6908 C   0  0  0  0  0  0  0  0  0  0  0  0
  153.0770  160.7177  119.3970 C   0  0  1  0  0  0  0  0  0  0  0  0
  152.9240  159.4862  119.9034 O   0  0  0  0  0  0  0  0  0  0  0  0
  154.5427  161.0676  119.3847 C   0  0  1  0  0  0  0  0  0  0  0  0
  154.8675  162.4865  119.6808 C   0  0  0  0  0  0  0  0  0  0  0  0
  155.1765  160.1917  120.4012 C   0  0  0  0  0  0  0  0  0  0  0  0
  156.2628  159.3932  120.0939 O   0  0  0  0  0  0  0  0  0  0  0  0
  154.7237  160.1708  121.5604 O   0  0  0  0  0  0  0  0  0  0  0  0
  150.2473  156.7674  121.3345 C   0  0  0  0  0  0  0  0  0  0  0  0
  148.9837  156.9402  122.1576 C   0  0  1  0  0  0  0  0  0  0  0  0
  148.7029  155.8551  122.9343 O   0  0  0  0  0  0  0  0  0  0  0  0
  149.4710  154.7829  122.5444 C   0  0  0  0  0  0  0  0  0  0  0  0
  149.1287  158.2416  122.9251 C   0  0  1  0  0  0  0  0  0  0  0  0
  150.2666  158.1487  123.8827 C   0  0  0  0  0  0  0  0  0  0  0  0
  149.3873  167.4491  127.6539 C   0  0  1  0  0  0  0  0  0  0  0  0
  148.6775  168.4574  128.2265 O   0  0  0  0  0  0  0  0  0  0  0  0
  149.2387  169.6942  128.2851 C   0  0  1  0  0  0  0  0  0  0  0  0
  148.2752  170.6026  127.7880 O   0  0  0  0  0  0  0  0  0  0  0  0
  149.4803  170.1294  129.7357 C   0  0  0  0  0  0  0  0  0  0  0  0
  148.2488  170.3773  130.3577 O   0  0  0  0  0  0  0  0  0  0  0  0
  150.4938  169.9095  127.5099 C   0  0  2  0  0  0  0  0  0  0  0  0
  150.2085  170.4574  126.1108 C   0  0  0  0  0  0  0  0  0  0  0  0
  151.4301  168.7386  127.4741 C   0  0  0  0  0  0  0  0  0  0  0  0
  150.8139  167.4857  128.0715 C   0  0  2  0  0  0  0  0  0  0  0  0
  151.6061  166.3166  127.4677 C   0  0  0  0  0  0  0  0  0  0  0  0
  1  2  1  6
  2  3  1  0
  3  4  1  1
  3  5  1  0
  5  6  1  1
  5  7  1  0
  7  8  1  1
  7  9  1  0
  9 10  1  0
 11 10  1  6
 11 12  1  0
 11 13  1  0
 13 14  1  6
 13 15  1  0
 15 16  1  0
 16 17  1  6
 16 18  1  0
 18 19  1  1
 18 20  1  0
 20 21  1  0
 21 22  1  6
 23 22  1  6
 23 24  1  0
 24 25  1  0
 25 26  1  0
 26 27  1  6
 26 28  1  0
 28 29  1  6
 28 30  1  0
 30 31  1  1
 30 32  1  0
 32 33  1  0
 32 34  2  0
 21 35  1  0
 35 36  1  0
 36 37  1  1
 37 38  1  0
 36 39  1  0
 39 40  1  6
  1 41  1  0
 41 42  1  1
 42 43  1  0
 43 44  1  6
 43 45  1  0
 45 46  1  0
 43 47  1  0
 47 48  1  6
 47 49  1  0
 49 50  1  0
 50 51  1  6
  6  1  1  0
 12  7  1  0
 19 13  1  0
 29 23  1  0
 50 41  1  0
 39 18  1  0
M  END
$$$$
