
     RDKit          3D

 51 56  0  0  0  0  0  0  0  0999 V2000
  157.9500  143.5849  125.6344 C   0  0  1  0  0  0  0  0  0  0  0  0
  157.6630  144.5365  124.5191 C   0  0  0  0  0  0  0  0  0  0  0  0
  158.9873  145.2526  124.3312 C   0  0  2  0  0  0  0  0  0  0  0  0
  159.6628  144.8849  123.0628 C   0  0  0  0  0  0  0  0  0  0  0  0
  159.6686  145.0394  125.6027 C   0  0  1  0  0  0  0  0  0  0  0  0
  159.2289  143.8019  126.0704 O   0  0  0  0  0  0  0  0  0  0  0  0
  161.1443  145.1099  125.6868 C   0  0  2  0  0  0  0  0  0  0  0  0
  161.7743  143.8054  125.1575 C   0  0  0  0  0  0  0  0  0  0  0  0
  161.5918  145.2157  127.1310 C   0  0  0  0  0  0  0  0  0  0  0  0
  163.0627  145.5997  126.9492 C   0  0  0  0  0  0  0  0  0  0  0  0
  163.0678  146.1032  125.5455 C   0  0  1  0  0  0  0  0  0  0  0  0
  161.7404  146.2052  125.1328 O   0  0  0  0  0  0  0  0  0  0  0  0
  163.7870  147.4133  125.4410 C   0  0  2  0  0  0  0  0  0  0  0  0
  162.8158  148.5301  125.7998 C   0  0  0  0  0  0  0  0  0  0  0  0
  164.1603  147.6207  123.9920 C   0  0  0  0  0  0  0  0  0  0  0  0
  165.4350  148.3907  124.0906 C   0  0  1  0  0  0  0  0  0  0  0  0
  165.2182  149.8800  124.1871 C   0  0  0  0  0  0  0  0  0  0  0  0
  165.9643  147.9092  125.4308 C   0  0  2  0  0  0  0  0  0  0  0  0
  164.9039  147.5504  126.2048 O   0  0  0  0  0  0  0  0  0  0  0  0
  166.6624  148.9375  125.9758 O   0  0  0  0  0  0  0  0  0  0  0  0
  167.6314  148.5533  126.9441 C   0  0  2  0  0  0  0  0  0  0  0  0
  168.1572  149.8447  127.4644 C   0  0  0  0  0  0  0  0  0  0  0  0
  167.2552  150.9062  127.9498 C   0  0  1  0  0  0  0  0  0  0  0  0
  167.7041  152.0685  128.6896 C   0  0  0  0  0  0  0  0  0  0  0  0
  168.0858  153.2782  127.8776 C   0  0  0  0  0  0  0  0  0  0  0  0
  167.7029  153.1255  126.4541 C   0  0  2  0  0  0  0  0  0  0  0  0
  167.8342  154.4097  125.6672 C   0  0  0  0  0  0  0  0  0  0  0  0
  166.4192  152.4215  126.3393 C   0  0  1  0  0  0  0  0  0  0  0  0
  166.4131  151.1900  126.8683 O   0  0  0  0  0  0  0  0  0  0  0  0
  165.1860  153.1594  126.7926 C   0  0  1  0  0  0  0  0  0  0  0  0
  163.9863  152.9962  125.9321 C   0  0  0  0  0  0  0  0  0  0  0  0
  164.8902  152.6540  128.1561 C   0  0  0  0  0  0  0  0  0  0  0  0
  165.0043  153.4649  129.2703 O   0  0  0  0  0  0  0  0  0  0  0  0
  164.5302  151.4720  128.3071 O   0  0  0  0  0  0  0  0  0  0  0  0
  168.7240  147.8229  126.2015 C   0  0  0  0  0  0  0  0  0  0  0  0
  168.2545  147.1383  124.9307 C   0  0  1  0  0  0  0  0  0  0  0  0
  169.0965  146.1482  124.5182 O   0  0  0  0  0  0  0  0  0  0  0  0
  169.8720  146.5920  123.4726 C   0  0  0  0  0  0  0  0  0  0  0  0
  166.8253  146.6878  125.1716 C   0  0  1  0  0  0  0  0  0  0  0  0
  166.7844  145.6698  126.2590 C   0  0  0  0  0  0  0  0  0  0  0  0
  157.0146  143.7934  126.8202 C   0  0  1  0  0  0  0  0  0  0  0  0
  155.7412  143.7945  126.3442 O   0  0  0  0  0  0  0  0  0  0  0  0
  154.7168  143.6845  127.2311 C   0  0  1  0  0  0  0  0  0  0  0  0
  153.7997  144.7166  126.9240 O   0  0  0  0  0  0  0  0  0  0  0  0
  153.9326  142.3836  127.0196 C   0  0  0  0  0  0  0  0  0  0  0  0
  153.4753  142.3266  125.6958 O   0  0  0  0  0  0  0  0  0  0  0  0
  155.0535  143.8056  128.6783 C   0  0  2  0  0  0  0  0  0  0  0  0
  154.9049  145.2440  129.1760 C   0  0  0  0  0  0  0  0  0  0  0  0
  156.3681  143.2057  129.0796 C   0  0  0  0  0  0  0  0  0  0  0  0
  157.1950  142.7691  127.8829 C   0  0  2  0  0  0  0  0  0  0  0  0
  158.6460  142.7302  128.3850 C   0  0  0  0  0  0  0  0  0  0  0  0
  1  2  1  6
  2  3  1  0
  3  4  1  6
  3  5  1  0
  5  6  1  6
  5  7  1  0
  7  8  1  6
  7  9  1  0
  9 10  1  0
 11 10  1  1
 11 12  1  0
 11 13  1  0
 13 14  1  1
 13 15  1  0
 15 16  1  0
 16 17  1  1
 16 18  1  0
 18 19  1  1
 18 20  1  0
 20 21  1  0
 21 22  1  6
 23 22  1  6
 23 24  1  0
 24 25  1  0
 25 26  1  0
 26 27  1  1
 26 28  1  0
 28 29  1  1
 28 30  1  0
 30 31  1  6
 30 32  1  0
 32 33  1  0
 32 34  2  0
 21 35  1  0
 35 36  1  0
 36 37  1  1
 37 38  1  0
 36 39  1  0
 39 40  1  1
  1 41  1  0
 41 42  1  6
 42 43  1  0
 43 44  1  6
 43 45  1  0
 45 46  1  0
 43 47  1  0
 47 48  1  6
 47 49  1  0
 49 50  1  0
 50 51  1  1
  6  1  1  0
 12  7  1  0
 19 13  1  0
 29 23  1  0
 50 41  1  0
 39 18  1  0
M  END
$$$$
