
     RDKit          3D

 51 56  0  0  0  0  0  0  0  0999 V2000
  190.4132  180.2691  132.0220 C   0  0  1  0  0  0  0  0  0  0  0  0
  190.5939  181.3204  133.0677 C   0  0  0  0  0  0  0  0  0  0  0  0
  189.2288  181.9797  133.1293 C   0  0  2  0  0  0  0  0  0  0  0  0
  188.5039  181.6803  134.3883 C   0  0  0  0  0  0  0  0  0  0  0  0
  188.6282  181.6305  131.8473 C   0  0  1  0  0  0  0  0  0  0  0  0
  189.1509  180.3840  131.5060 O   0  0  0  0  0  0  0  0  0  0  0  0
  187.1576  181.6175  131.6838 C   0  0  2  0  0  0  0  0  0  0  0  0
  186.7828  181.7445  130.1932 C   0  0  0  0  0  0  0  0  0  0  0  0
  186.5351  182.8230  132.3594 C   0  0  0  0  0  0  0  0  0  0  0  0
  185.0560  182.4279  132.3474 C   0  0  0  0  0  0  0  0  0  0  0  0
  185.1431  180.9537  132.1400 C   0  0  1  0  0  0  0  0  0  0  0  0
  186.4819  180.5905  132.2762 O   0  0  0  0  0  0  0  0  0  0  0  0
  184.2641  180.2167  133.1035 C   0  0  2  0  0  0  0  0  0  0  0  0
  182.8405  180.7379  132.9581 C   0  0  0  0  0  0  0  0  0  0  0  0
  184.7096  180.5749  134.5018 C   0  0  0  0  0  0  0  0  0  0  0  0
  184.4154  179.3279  135.2673 C   0  0  1  0  0  0  0  0  0  0  0  0
  183.0028  179.2782  135.7931 C   0  0  0  0  0  0  0  0  0  0  0  0
  184.5437  178.2783  134.1764 C   0  0  2  0  0  0  0  0  0  0  0  0
  184.2421  178.8621  132.9845 O   0  0  0  0  0  0  0  0  0  0  0  0
  183.6785  177.2784  134.4823 O   0  0  0  0  0  0  0  0  0  0  0  0
  183.9947  176.0182  133.9027 C   0  0  2  0  0  0  0  0  0  0  0  0
  182.8507  175.1457  134.2835 C   0  0  0  0  0  0  0  0  0  0  0  0
  181.6981  175.6701  135.0401 C   0  0  1  0  0  0  0  0  0  0  0  0
  181.7740  176.8027  135.9407 C   0  0  0  0  0  0  0  0  0  0  0  0
  181.5229  178.1603  135.3387 C   0  0  0  0  0  0  0  0  0  0  0  0
  181.0073  178.0583  133.9531 C   0  0  2  0  0  0  0  0  0  0  0  0
  180.5042  179.3775  133.4126 C   0  0  0  0  0  0  0  0  0  0  0  0
  180.0957  176.9140  133.8263 C   0  0  1  0  0  0  0  0  0  0  0  0
  180.6511  175.7283  134.1130 O   0  0  0  0  0  0  0  0  0  0  0  0
  178.7624  177.0153  134.5212 C   0  0  1  0  0  0  0  0  0  0  0  0
  177.7309  176.0425  134.0783 C   0  0  0  0  0  0  0  0  0  0  0  0
  179.0424  176.8175  135.9650 C   0  0  0  0  0  0  0  0  0  0  0  0
  178.0517  176.4323  136.8494 O   0  0  0  0  0  0  0  0  0  0  0  0
  180.1954  177.0012  136.3966 O   0  0  0  0  0  0  0  0  0  0  0  0
  185.2525  175.5301  134.5799 C   0  0  0  0  0  0  0  0  0  0  0  0
  186.1437  176.6429  135.1008 C   0  0  1  0  0  0  0  0  0  0  0  0
  187.4325  176.2434  135.2980 O   0  0  0  0  0  0  0  0  0  0  0  0
  187.8161  175.3753  134.3024 C   0  0  0  0  0  0  0  0  0  0  0  0
  185.9883  177.8170  134.1516 C   0  0  1  0  0  0  0  0  0  0  0  0
  186.4895  177.4515  132.7968 C   0  0  0  0  0  0  0  0  0  0  0  0
  191.4004  180.4301  130.8713 C   0  0  1  0  0  0  0  0  0  0  0  0
  192.6077  180.7518  131.4073 O   0  0  0  0  0  0  0  0  0  0  0  0
  193.7103  180.6753  130.6157 C   0  0  1  0  0  0  0  0  0  0  0  0
  194.4065  181.8971  130.7681 O   0  0  0  0  0  0  0  0  0  0  0  0
  194.6835  179.6010  131.1165 C   0  0  0  0  0  0  0  0  0  0  0  0
  195.8839  179.6903  130.3981 O   0  0  0  0  0  0  0  0  0  0  0  0
  193.4872  180.4701  129.1560 C   0  0  2  0  0  0  0  0  0  0  0  0
  193.4311  181.7980  128.3994 C   0  0  0  0  0  0  0  0  0  0  0  0
  192.3354  179.5756  128.8064 C   0  0  0  0  0  0  0  0  0  0  0  0
  191.4926  179.2162  130.0176 C   0  0  2  0  0  0  0  0  0  0  0  0
  190.1200  178.8204  129.4536 C   0  0  0  0  0  0  0  0  0  0  0  0
  1  2  1  1
  2  3  1  0
  3  4  1  1
  3  5  1  0
  5  6  1  1
  5  7  1  0
  7  8  1  6
  7  9  1  0
  9 10  1  0
 11 10  1  1
 11 12  1  0
 11 13  1  0
 13 14  1  1
 13 15  1  0
 15 16  1  0
 16 17  1  6
 16 18  1  0
 18 19  1  6
 18 20  1  0
 20 21  1  0
 21 22  1  1
 23 22  1  6
 23 24  1  0
 24 25  1  0
 25 26  1  0
 26 27  1  1
 26 28  1  0
 28 29  1  1
 28 30  1  0
 30 31  1  6
 30 32  1  0
 32 33  1  0
 32 34  2  0
 21 35  1  0
 35 36  1  0
 36 37  1  6
 37 38  1  0
 36 39  1  0
 39 40  1  6
  1 41  1  0
 41 42  1  1
 42 43  1  0
 43 44  1  6
 43 45  1  0
 45 46  1  0
 43 47  1  0
 47 48  1  6
 47 49  1  0
 49 50  1  0
 50 51  1  6
  6  1  1  0
 12  7  1  0
 19 13  1  0
 29 23  1  0
 50 41  1  0
 39 18  1  0
M  END
$$$$
