
     RDKit          3D

 51 56  0  0  0  0  0  0  0  0999 V2000
  133.4683  136.8169  132.4271 C   0  0  1  0  0  0  0  0  0  0  0  0
  132.1858  136.0750  132.6174 C   0  0  0  0  0  0  0  0  0  0  0  0
  131.1486  137.1822  132.6283 C   0  0  2  0  0  0  0  0  0  0  0  0
  130.2925  137.1776  131.4170 C   0  0  0  0  0  0  0  0  0  0  0  0
  131.9272  138.3695  132.9603 C   0  0  1  0  0  0  0  0  0  0  0  0
  133.1963  138.1581  132.4235 O   0  0  0  0  0  0  0  0  0  0  0  0
  131.4433  139.7163  132.5837 C   0  0  2  0  0  0  0  0  0  0  0  0
  131.8072  140.0260  131.1174 C   0  0  0  0  0  0  0  0  0  0  0  0
  132.1403  140.7824  133.4051 C   0  0  0  0  0  0  0  0  0  0  0  0
  131.2703  142.0024  133.0909 C   0  0  0  0  0  0  0  0  0  0  0  0
  130.0246  141.3576  132.5847 C   0  0  1  0  0  0  0  0  0  0  0  0
  130.1302  139.9904  132.8341 O   0  0  0  0  0  0  0  0  0  0  0  0
  128.8071  141.9496  133.2262 C   0  0  2  0  0  0  0  0  0  0  0  0
  128.8624  141.6702  134.7223 C   0  0  0  0  0  0  0  0  0  0  0  0
  127.6008  141.2100  132.6976 C   0  0  0  0  0  0  0  0  0  0  0  0
  126.5434  142.2634  132.7044 C   0  0  1  0  0  0  0  0  0  0  0  0
  125.8258  142.3698  134.0265 C   0  0  0  0  0  0  0  0  0  0  0  0
  127.3806  143.5186  132.5263 C   0  0  2  0  0  0  0  0  0  0  0  0
  128.6176  143.2839  133.0430 O   0  0  0  0  0  0  0  0  0  0  0  0
  126.7410  144.5200  133.1822 O   0  0  0  0  0  0  0  0  0  0  0  0
  127.0646  145.8300  132.7314 C   0  0  2  0  0  0  0  0  0  0  0  0
  126.3418  146.7274  133.6732 C   0  0  0  0  0  0  0  0  0  0  0  0
  126.6338  148.1717  133.7411 C   0  0  1  0  0  0  0  0  0  0  0  0
  125.9549  149.0895  134.6335 C   0  0  0  0  0  0  0  0  0  0  0  0
  126.5658  149.2798  135.9969 C   0  0  0  0  0  0  0  0  0  0  0  0
  127.9056  148.6532  136.0892 C   0  0  2  0  0  0  0  0  0  0  0  0
  128.6524  149.0405  137.3452 C   0  0  0  0  0  0  0  0  0  0  0  0
  128.6354  148.8107  134.8245 C   0  0  1  0  0  0  0  0  0  0  0  0
  128.0306  148.2594  133.7631 O   0  0  0  0  0  0  0  0  0  0  0  0
  129.0965  150.1992  134.4638 C   0  0  1  0  0  0  0  0  0  0  0  0
  130.0749  150.8146  135.3967 C   0  0  0  0  0  0  0  0  0  0  0  0
  129.7024  150.0865  133.1138 C   0  0  0  0  0  0  0  0  0  0  0  0
  131.0041  149.6547  132.9374 O   0  0  0  0  0  0  0  0  0  0  0  0
  129.0274  150.3865  132.1119 O   0  0  0  0  0  0  0  0  0  0  0  0
  126.4803  145.9713  131.3466 C   0  0  0  0  0  0  0  0  0  0  0  0
  126.3510  144.6588  130.5952 C   0  0  1  0  0  0  0  0  0  0  0  0
  126.2539  144.8265  129.2454 O   0  0  0  0  0  0  0  0  0  0  0  0
  126.7855  146.0413  128.8803 C   0  0  0  0  0  0  0  0  0  0  0  0
  127.5059  143.7787  131.0374 C   0  0  1  0  0  0  0  0  0  0  0  0
  128.8024  144.3908  130.6312 C   0  0  0  0  0  0  0  0  0  0  0  0
  134.4584  136.5481  133.5550 C   0  0  1  0  0  0  0  0  0  0  0  0
  133.9268  135.5789  134.3464 O   0  0  0  0  0  0  0  0  0  0  0  0
  134.7330  134.9684  135.2549 C   0  0  1  0  0  0  0  0  0  0  0  0
  134.0475  134.9973  136.4919 O   0  0  0  0  0  0  0  0  0  0  0  0
  134.9069  133.4787  134.9347 C   0  0  0  0  0  0  0  0  0  0  0  0
  133.6710  132.8292  135.0595 O   0  0  0  0  0  0  0  0  0  0  0  0
  136.0802  135.5659  135.4795 C   0  0  2  0  0  0  0  0  0  0  0  0
  136.0711  136.5644  136.6378 C   0  0  0  0  0  0  0  0  0  0  0  0
  136.7391  136.1308  134.2565 C   0  0  0  0  0  0  0  0  0  0  0  0
  135.8063  136.1636  133.0586 C   0  0  2  0  0  0  0  0  0  0  0  0
  136.3863  137.2337  132.1219 C   0  0  0  0  0  0  0  0  0  0  0  0
  1  2  1  1
  2  3  1  0
  3  4  1  6
  3  5  1  0
  5  6  1  6
  5  7  1  0
  7  8  1  6
  7  9  1  0
  9 10  1  0
 11 10  1  1
 11 12  1  0
 11 13  1  0
 13 14  1  1
 13 15  1  0
 15 16  1  0
 16 17  1  1
 16 18  1  0
 18 19  1  1
 18 20  1  0
 20 21  1  0
 21 22  1  1
 23 22  1  1
 23 24  1  0
 24 25  1  0
 25 26  1  0
 26 27  1  1
 26 28  1  0
 28 29  1  6
 28 30  1  0
 30 31  1  1
 30 32  1  0
 32 33  1  0
 32 34  2  0
 21 35  1  0
 35 36  1  0
 36 37  1  6
 37 38  1  0
 36 39  1  0
 39 40  1  1
  1 41  1  0
 41 42  1  1
 42 43  1  0
 43 44  1  1
 43 45  1  0
 45 46  1  0
 43 47  1  0
 47 48  1  1
 47 49  1  0
 49 50  1  0
 50 51  1  6
  6  1  1  0
 12  7  1  0
 19 13  1  0
 29 23  1  0
 50 41  1  0
 39 18  1  0
M  END
$$$$
