
     RDKit          3D

 51 56  0  0  0  0  0  0  0  0999 V2000
  123.1139  137.1398  137.4249 C   0  0  1  0  0  0  0  0  0  0  0  0
  124.2097  136.9690  138.4257 C   0  0  0  0  0  0  0  0  0  0  0  0
  125.3371  137.8012  137.8439 C   0  0  2  0  0  0  0  0  0  0  0  0
  125.6063  139.0305  138.6290 C   0  0  0  0  0  0  0  0  0  0  0  0
  124.9845  137.9058  136.4329 C   0  0  1  0  0  0  0  0  0  0  0  0
  123.5915  137.8883  136.3835 O   0  0  0  0  0  0  0  0  0  0  0  0
  125.4998  139.0219  135.6092 C   0  0  2  0  0  0  0  0  0  0  0  0
  124.5276  140.2181  135.6589 C   0  0  0  0  0  0  0  0  0  0  0  0
  125.5689  138.6200  134.1495 C   0  0  0  0  0  0  0  0  0  0  0  0
  126.4096  139.7636  133.5755 C   0  0  0  0  0  0  0  0  0  0  0  0
  127.0512  140.3085  134.8064 C   0  0  1  0  0  0  0  0  0  0  0  0
  126.7833  139.4199  135.8463 O   0  0  0  0  0  0  0  0  0  0  0  0
  128.5227  140.5091  134.6088 C   0  0  2  0  0  0  0  0  0  0  0  0
  129.2502  139.2547  135.0739 C   0  0  0  0  0  0  0  0  0  0  0  0
  128.9640  141.6245  135.5271 C   0  0  0  0  0  0  0  0  0  0  0  0
  130.0762  142.2581  134.7596 C   0  0  1  0  0  0  0  0  0  0  0  0
  131.4119  141.6037  135.0083 C   0  0  0  0  0  0  0  0  0  0  0  0
  129.6620  141.9438  133.3321 C   0  0  2  0  0  0  0  0  0  0  0  0
  128.9269  140.7984  133.3429 O   0  0  0  0  0  0  0  0  0  0  0  0
  130.8017  141.8055  132.6082 O   0  0  0  0  0  0  0  0  0  0  0  0
  130.6483  142.0131  131.2092 C   0  0  2  0  0  0  0  0  0  0  0  0
  131.9865  141.6886  130.6446 C   0  0  0  0  0  0  0  0  0  0  0  0
  132.1718  140.5862  129.6821 C   0  0  1  0  0  0  0  0  0  0  0  0
  133.3574  140.4208  128.8656 C   0  0  0  0  0  0  0  0  0  0  0  0
  134.4725  139.5980  129.4555 C   0  0  0  0  0  0  0  0  0  0  0  0
  134.0460  138.9053  130.6942 C   0  0  2  0  0  0  0  0  0  0  0  0
  135.0469  137.8764  131.1688 C   0  0  0  0  0  0  0  0  0  0  0  0
  132.6541  138.4519  130.5769 C   0  0  1  0  0  0  0  0  0  0  0  0
  131.7669  139.4343  130.3666 O   0  0  0  0  0  0  0  0  0  0  0  0
  132.3760  137.3225  129.6189 C   0  0  1  0  0  0  0  0  0  0  0  0
  133.3319  136.1866  129.6691 C   0  0  0  0  0  0  0  0  0  0  0  0
  131.0128  136.8379  129.9493 C   0  0  0  0  0  0  0  0  0  0  0  0
  129.8817  137.4868  129.4895 O   0  0  0  0  0  0  0  0  0  0  0  0
  130.8779  135.8230  130.6572 O   0  0  0  0  0  0  0  0  0  0  0  0
  130.3586  143.4820  131.0154 C   0  0  0  0  0  0  0  0  0  0  0  0
  129.6800  144.1384  132.2039 C   0  0  1  0  0  0  0  0  0  0  0  0
  129.0375  145.2958  131.8766 O   0  0  0  0  0  0  0  0  0  0  0  0
  128.0808  145.0511  130.9192 C   0  0  0  0  0  0  0  0  0  0  0  0
  128.7925  143.0869  132.8447 C   0  0  1  0  0  0  0  0  0  0  0  0
  127.7178  142.6761  131.8978 C   0  0  0  0  0  0  0  0  0  0  0  0
  122.6426  135.8051  136.8583 C   0  0  1  0  0  0  0  0  0  0  0  0
  122.6167  134.9102  137.8814 O   0  0  0  0  0  0  0  0  0  0  0  0
  121.9697  133.7294  137.6944 C   0  0  1  0  0  0  0  0  0  0  0  0
  122.8566  132.7087  138.1097 O   0  0  0  0  0  0  0  0  0  0  0  0
  120.7583  133.6030  138.6264 C   0  0  0  0  0  0  0  0  0  0  0  0
  121.1602  133.0154  139.8339 O   0  0  0  0  0  0  0  0  0  0  0  0
  121.5361  133.4032  136.3058 C   0  0  2  0  0  0  0  0  0  0  0  0
  122.5869  132.5761  135.5639 C   0  0  0  0  0  0  0  0  0  0  0  0
  121.0658  134.5727  135.4934 C   0  0  0  0  0  0  0  0  0  0  0  0
  121.3190  135.8996  136.1874 C   0  0  2  0  0  0  0  0  0  0  0  0
  121.3315  136.9484  135.0654 C   0  0  0  0  0  0  0  0  0  0  0  0
  1  2  1  1
  2  3  1  0
  3  4  1  1
  3  5  1  0
  5  6  1  1
  5  7  1  0
  7  8  1  6
  7  9  1  0
  9 10  1  0
 11 10  1  6
 11 12  1  0
 11 13  1  0
 13 14  1  1
 13 15  1  0
 15 16  1  0
 16 17  1  1
 16 18  1  0
 18 19  1  1
 18 20  1  0
 20 21  1  0
 21 22  1  6
 23 22  1  1
 23 24  1  0
 24 25  1  0
 25 26  1  0
 26 27  1  6
 26 28  1  0
 28 29  1  6
 28 30  1  0
 30 31  1  1
 30 32  1  0
 32 33  1  0
 32 34  2  0
 21 35  1  0
 35 36  1  0
 36 37  1  6
 37 38  1  0
 36 39  1  0
 39 40  1  6
  1 41  1  0
 41 42  1  1
 42 43  1  0
 43 44  1  1
 43 45  1  0
 45 46  1  0
 43 47  1  0
 47 48  1  6
 47 49  1  0
 49 50  1  0
 50 51  1  6
  6  1  1  0
 12  7  1  0
 19 13  1  0
 29 23  1  0
 50 41  1  0
 39 18  1  0
M  END
$$$$
