
     RDKit          3D

 51 56  0  0  0  0  0  0  0  0999 V2000
  189.2932  162.1284  113.9855 N   0  0  0  0  0  0  0  0  0  0  0  0
  190.1589  161.2598  114.7171 C   0  0  0  0  0  0  0  0  0  0  0  0
  190.3904  161.4675  116.0561 C   0  0  0  0  0  0  0  0  0  0  0  0
  191.2295  160.6171  116.7364 C   0  0  0  0  0  0  0  0  0  0  0  0
  191.8645  159.5360  116.1105 C   0  0  0  0  0  0  0  0  0  0  0  0
  192.7133  158.6768  116.8351 N   0  0  0  0  0  0  0  0  0  0  0  0
  193.0821  158.7688  118.1830 C   0  0  0  0  0  0  0  0  0  0  0  0
  193.2886  157.6253  118.9080 C   0  0  0  0  0  0  0  0  0  0  0  0
  193.6349  157.6097  120.2633 C   0  0  0  0  0  0  0  0  0  0  0  0
  193.7797  158.8106  120.9195 C   0  0  0  0  0  0  0  0  0  0  0  0
  194.1197  158.8725  122.2626 N   0  0  0  0  0  0  0  0  0  0  0  0
  193.3695  158.4224  123.3720 C   0  0  0  0  0  0  0  0  0  0  0  0
  193.8149  158.3405  124.6253 N   0  0  0  0  0  0  0  0  0  0  0  0
  193.0408  157.9041  125.6155 C   0  0  0  0  0  0  0  0  0  0  0  0
  193.6510  157.8016  127.2775 Cl  0  0  0  0  0  0  0  0  0  0  0  0
  191.7720  157.5232  125.4088 N   0  0  0  0  0  0  0  0  0  0  0  0
  191.2789  157.5941  124.1288 C   0  0  0  0  0  0  0  0  0  0  0  0
  189.9393  157.1947  123.8983 N   0  0  0  0  0  0  0  0  0  0  0  0
  189.1913  157.3179  122.7154 C   0  0  0  0  0  0  0  0  0  0  0  0
  189.6873  157.8602  121.5661 C   0  0  0  0  0  0  0  0  0  0  0  0
  188.9132  157.9672  120.4043 C   0  0  0  0  0  0  0  0  0  0  0  0
  187.6222  157.5119  120.4314 C   0  0  0  0  0  0  0  0  0  0  0  0
  187.1053  156.9658  121.5701 C   0  0  0  0  0  0  0  0  0  0  0  0
  187.8720  156.8636  122.7094 C   0  0  0  0  0  0  0  0  0  0  0  0
  187.2334  156.1733  124.1679 S   0  0  0  0  0  6  0  0  0  0  0  0
  187.1007  157.3938  125.3240 O   0  0  0  0  0  0  0  0  0  0  0  0
  188.1199  155.0678  124.6846 O   0  0  0  0  0  0  0  0  0  0  0  0
  185.8569  155.6010  123.9536 O   0  0  0  0  0  0  0  0  0  0  0  0
  192.0791  158.0327  123.1734 N   0  0  0  0  0  0  0  0  0  0  0  0
  193.5660  159.9873  120.1692 C   0  0  0  0  0  0  0  0  0  0  0  0
  193.2274  159.9718  118.8415 C   0  0  0  0  0  0  0  0  0  0  0  0
  193.7547  161.5022  121.0189 S   0  0  0  0  0  6  0  0  0  0  0  0
  192.4852  161.6921  122.0941 O   0  0  0  0  0  0  0  0  0  0  0  0
  193.7382  162.6423  120.0083 O   0  0  0  0  0  0  0  0  0  0  0  0
  195.0597  161.5489  121.7965 O   0  0  0  0  0  0  0  0  0  0  0  0
  191.6127  159.3539  114.7794 C   0  0  0  0  0  0  0  0  0  0  0  0
  190.7578  160.2175  114.0759 C   0  0  0  0  0  0  0  0  0  0  0  0
  190.4490  160.0443  112.6615 C   0  0  0  0  0  0  0  0  0  0  0  0
  189.6842  160.8224  112.0370 O   0  0  0  0  0  0  0  0  0  0  0  0
  191.0312  158.9383  111.9125 C   0  0  0  0  0  0  0  0  0  0  0  0
  190.7590  158.7499  110.5788 C   0  0  0  0  0  0  0  0  0  0  0  0
  191.3400  157.6742  109.8996 C   0  0  0  0  0  0  0  0  0  0  0  0
  192.1782  156.8207  110.5867 C   0  0  0  0  0  0  0  0  0  0  0  0
  192.4496  157.0172  111.9370 C   0  0  0  0  0  0  0  0  0  0  0  0
  191.8690  158.0822  112.5916 C   0  0  0  0  0  0  0  0  0  0  0  0
  192.1750  158.2648  114.0173 C   0  0  0  0  0  0  0  0  0  0  0  0
  192.9354  157.4487  114.5622 O   0  0  0  0  0  0  0  0  0  0  0  0
  189.6091  162.8096  116.8535 S   0  0  0  0  0  6  0  0  0  0  0  0
  189.8545  162.7768  118.5061 O   0  0  0  0  0  0  0  0  0  0  0  0
  190.1163  164.1144  116.2640 O   0  0  0  0  0  0  0  0  0  0  0  0
  188.1252  162.7830  116.6177 O   0  0  0  0  0  0  0  0  0  0  0  0
  1  2  1  0
  2  3  2  0
  3  4  1  0
  4  5  2  0
  5  6  1  0
  6  7  1  0
  7  8  2  0
  8  9  1  0
  9 10  2  0
 10 11  1  0
 11 12  1  0
 12 13  2  0
 13 14  1  0
 14 15  1  0
 14 16  2  0
 16 17  1  0
 17 18  1  0
 18 19  1  0
 19 20  2  0
 20 21  1  0
 21 22  2  0
 22 23  1  0
 23 24  2  0
 24 25  1  0
 25 26  1  0
 25 27  2  0
 25 28  2  0
 17 29  2  0
 10 30  1  0
 30 31  2  0
 30 32  1  0
 32 33  1  0
 32 34  2  0
 32 35  2  0
  5 36  1  0
 36 37  2  0
 37 38  1  0
 38 39  2  0
 38 40  1  0
 40 41  2  0
 41 42  1  0
 42 43  2  0
 43 44  1  0
 44 45  2  0
 45 46  1  0
 46 47  2  0
  3 48  1  0
 48 49  1  0
 48 50  2  0
 48 51  2  0
 37  2  1  0
 45 40  1  0
 31  7  1  0
 46 36  1  0
 29 12  1  0
 24 19  1  0
M  END
$$$$
