
     RDKit          3D

 51 56  0  0  0  0  0  0  0  0999 V2000
  128.1526  137.5220  137.1256 N   0  0  0  0  0  0  0  0  0  0  0  0
  128.8468  137.8793  135.9299 C   0  0  0  0  0  0  0  0  0  0  0  0
  128.5017  139.0123  135.2320 C   0  0  0  0  0  0  0  0  0  0  0  0
  129.1853  139.3324  134.0831 C   0  0  0  0  0  0  0  0  0  0  0  0
  130.2308  138.5395  133.5909 C   0  0  0  0  0  0  0  0  0  0  0  0
  130.9183  138.8968  132.4147 N   0  0  0  0  0  0  0  0  0  0  0  0
  130.7642  140.0587  131.6482 C   0  0  0  0  0  0  0  0  0  0  0  0
  131.1576  140.0615  130.3363 C   0  0  0  0  0  0  0  0  0  0  0  0
  131.0687  141.1756  129.4949 C   0  0  0  0  0  0  0  0  0  0  0  0
  130.5563  142.3464  130.0051 C   0  0  0  0  0  0  0  0  0  0  0  0
  130.4396  143.4910  129.2307 N   0  0  0  0  0  0  0  0  0  0  0  0
  131.0858  143.7850  128.0092 C   0  0  0  0  0  0  0  0  0  0  0  0
  131.2218  144.9999  127.4786 N   0  0  0  0  0  0  0  0  0  0  0  0
  131.8464  145.1909  126.3196 C   0  0  0  0  0  0  0  0  0  0  0  0
  132.0175  146.8153  125.6285 Cl  0  0  0  0  0  0  0  0  0  0  0  0
  132.3731  144.1745  125.6217 N   0  0  0  0  0  0  0  0  0  0  0  0
  132.2518  142.9076  126.1383 C   0  0  0  0  0  0  0  0  0  0  0  0
  132.8050  141.8257  125.4099 N   0  0  0  0  0  0  0  0  0  0  0  0
  133.5036  141.8705  124.1918 C   0  0  0  0  0  0  0  0  0  0  0  0
  132.9469  142.2972  123.0218 C   0  0  0  0  0  0  0  0  0  0  0  0
  133.6731  142.3290  121.8251 C   0  0  0  0  0  0  0  0  0  0  0  0
  134.9792  141.9183  121.8389 C   0  0  0  0  0  0  0  0  0  0  0  0
  135.5566  141.4875  122.9977 C   0  0  0  0  0  0  0  0  0  0  0  0
  134.8367  141.4587  124.1712 C   0  0  0  0  0  0  0  0  0  0  0  0
  135.5519  140.9136  125.6554 S   0  0  0  0  0  6  0  0  0  0  0  0
  135.9446  139.2817  125.4924 O   0  0  0  0  0  0  0  0  0  0  0  0
  134.6113  141.1038  126.8190 O   0  0  0  0  0  0  0  0  0  0  0  0
  136.8251  141.6571  125.9628 O   0  0  0  0  0  0  0  0  0  0  0  0
  131.6246  142.7597  127.2916 N   0  0  0  0  0  0  0  0  0  0  0  0
  130.1518  142.3401  131.3577 C   0  0  0  0  0  0  0  0  0  0  0  0
  130.2508  141.2325  132.1586 C   0  0  0  0  0  0  0  0  0  0  0  0
  129.5035  143.8351  131.9877 S   0  0  0  0  0  6  0  0  0  0  0  0
  129.8905  145.0860  130.9440 O   0  0  0  0  0  0  0  0  0  0  0  0
  130.1203  144.1056  133.3543 O   0  0  0  0  0  0  0  0  0  0  0  0
  127.9916  143.7733  132.1304 O   0  0  0  0  0  0  0  0  0  0  0  0
  130.5523  137.4210  134.3078 C   0  0  0  0  0  0  0  0  0  0  0  0
  129.8594  137.0855  135.4821 C   0  0  0  0  0  0  0  0  0  0  0  0
  130.1859  135.9126  136.2844 C   0  0  0  0  0  0  0  0  0  0  0  0
  129.5603  135.6167  137.3338 O   0  0  0  0  0  0  0  0  0  0  0  0
  131.2726  135.0281  135.8843 C   0  0  0  0  0  0  0  0  0  0  0  0
  131.6030  133.9154  136.6199 C   0  0  0  0  0  0  0  0  0  0  0  0
  132.6540  133.0948  136.1983 C   0  0  0  0  0  0  0  0  0  0  0  0
  133.3403  133.4215  135.0470 C   0  0  0  0  0  0  0  0  0  0  0  0
  133.0005  134.5495  134.3069 C   0  0  0  0  0  0  0  0  0  0  0  0
  131.9622  135.3478  134.7361 C   0  0  0  0  0  0  0  0  0  0  0  0
  131.6257  136.5319  133.9333 C   0  0  0  0  0  0  0  0  0  0  0  0
  132.2962  136.7575  132.9131 O   0  0  0  0  0  0  0  0  0  0  0  0
  127.2014  140.0126  135.8288 S   0  0  0  0  0  6  0  0  0  0  0  0
  125.7272  139.2305  135.7408 O   0  0  0  0  0  0  0  0  0  0  0  0
  127.4992  140.4316  137.2581 O   0  0  0  0  0  0  0  0  0  0  0  0
  127.0881  141.2788  135.0275 O   0  0  0  0  0  0  0  0  0  0  0  0
  1  2  1  0
  2  3  2  0
  3  4  1  0
  4  5  2  0
  5  6  1  0
  6  7  1  0
  7  8  2  0
  8  9  1  0
  9 10  2  0
 10 11  1  0
 11 12  1  0
 12 13  2  0
 13 14  1  0
 14 15  1  0
 14 16  2  0
 16 17  1  0
 17 18  1  0
 18 19  1  0
 19 20  2  0
 20 21  1  0
 21 22  2  0
 22 23  1  0
 23 24  2  0
 24 25  1  0
 25 26  1  0
 25 27  2  0
 25 28  2  0
 17 29  2  0
 10 30  1  0
 30 31  2  0
 30 32  1  0
 32 33  1  0
 32 34  2  0
 32 35  2  0
  5 36  1  0
 36 37  2  0
 37 38  1  0
 38 39  2  0
 38 40  1  0
 40 41  2  0
 41 42  1  0
 42 43  2  0
 43 44  1  0
 44 45  2  0
 45 46  1  0
 46 47  2  0
  3 48  1  0
 48 49  1  0
 48 50  2  0
 48 51  2  0
 37  2  1  0
 45 40  1  0
 31  7  1  0
 46 36  1  0
 29 12  1  0
 24 19  1  0
M  END
$$$$
