
     RDKit          3D

 51 56  0  0  0  0  0  0  0  0999 V2000
  132.0399  142.5354  124.9818 N   0  0  0  0  0  0  0  0  0  0  0  0
  132.0643  141.6671  126.1152 C   0  0  0  0  0  0  0  0  0  0  0  0
  131.7605  142.1432  127.3684 C   0  0  0  0  0  0  0  0  0  0  0  0
  131.7930  141.2860  128.4428 C   0  0  0  0  0  0  0  0  0  0  0  0
  132.1278  139.9319  128.3078 C   0  0  0  0  0  0  0  0  0  0  0  0
  132.1454  139.0757  129.4259 N   0  0  0  0  0  0  0  0  0  0  0  0
  131.1646  138.9337  130.4154 C   0  0  0  0  0  0  0  0  0  0  0  0
  131.1436  137.8049  131.1908 C   0  0  0  0  0  0  0  0  0  0  0  0
  130.1929  137.5571  132.1868 C   0  0  0  0  0  0  0  0  0  0  0  0
  129.2137  138.4977  132.4106 C   0  0  0  0  0  0  0  0  0  0  0  0
  128.2378  138.3194  133.3797 N   0  0  0  0  0  0  0  0  0  0  0  0
  128.2505  138.7658  134.7201 C   0  0  0  0  0  0  0  0  0  0  0  0
  127.1826  138.8729  135.5101 N   0  0  0  0  0  0  0  0  0  0  0  0
  127.2814  139.3036  136.7650 C   0  0  0  0  0  0  0  0  0  0  0  0
  125.8489  139.4401  137.8016 Cl  0  0  0  0  0  0  0  0  0  0  0  0
  128.4580  139.6533  137.3044 N   0  0  0  0  0  0  0  0  0  0  0  0
  129.5807  139.5556  136.5191 C   0  0  0  0  0  0  0  0  0  0  0  0
  130.8297  139.9218  137.0785 N   0  0  0  0  0  0  0  0  0  0  0  0
  132.0451  140.1441  136.4096 C   0  0  0  0  0  0  0  0  0  0  0  0
  132.7433  139.1600  135.7733 C   0  0  0  0  0  0  0  0  0  0  0  0
  133.9524  139.4173  135.1158 C   0  0  0  0  0  0  0  0  0  0  0  0
  134.4406  140.6964  135.1164 C   0  0  0  0  0  0  0  0  0  0  0  0
  133.7590  141.6967  135.7464 C   0  0  0  0  0  0  0  0  0  0  0  0
  132.5704  141.4367  136.3914 C   0  0  0  0  0  0  0  0  0  0  0  0
  131.6885  142.6941  137.1993 S   0  0  0  0  0  6  0  0  0  0  0  0
  132.3563  144.1804  136.7644 O   0  0  0  0  0  0  0  0  0  0  0  0
  131.7403  142.5242  138.6971 O   0  0  0  0  0  0  0  0  0  0  0  0
  130.2407  142.7096  136.7849 O   0  0  0  0  0  0  0  0  0  0  0  0
  129.4408  139.1237  135.2784 N   0  0  0  0  0  0  0  0  0  0  0  0
  129.2383  139.6600  131.6096 C   0  0  0  0  0  0  0  0  0  0  0  0
  130.1828  139.8758  130.6405 C   0  0  0  0  0  0  0  0  0  0  0  0
  127.9877  140.8429  131.9083 S   0  0  0  0  0  6  0  0  0  0  0  0
  126.4894  140.1177  131.7270 O   0  0  0  0  0  0  0  0  0  0  0  0
  128.1276  141.9769  130.9005 O   0  0  0  0  0  0  0  0  0  0  0  0
  128.0826  141.4149  133.3133 O   0  0  0  0  0  0  0  0  0  0  0  0
  132.4224  139.4877  127.0490 C   0  0  0  0  0  0  0  0  0  0  0  0
  132.3925  140.3558  125.9457 C   0  0  0  0  0  0  0  0  0  0  0  0
  132.6808  139.9154  124.5860 C   0  0  0  0  0  0  0  0  0  0  0  0
  132.6543  140.6981  123.6027 O   0  0  0  0  0  0  0  0  0  0  0  0
  133.0158  138.5224  124.3204 C   0  0  0  0  0  0  0  0  0  0  0  0
  133.2925  138.0783  123.0497 C   0  0  0  0  0  0  0  0  0  0  0  0
  133.6090  136.7321  122.8413 C   0  0  0  0  0  0  0  0  0  0  0  0
  133.6366  135.8742  123.9213 C   0  0  0  0  0  0  0  0  0  0  0  0
  133.3555  136.3304  125.2052 C   0  0  0  0  0  0  0  0  0  0  0  0
  133.0454  137.6601  125.3935 C   0  0  0  0  0  0  0  0  0  0  0  0
  132.7539  138.1130  126.7608 C   0  0  0  0  0  0  0  0  0  0  0  0
  132.7955  137.2756  127.6764 O   0  0  0  0  0  0  0  0  0  0  0  0
  131.3418  143.8274  127.5572 S   0  0  0  0  0  6  0  0  0  0  0  0
  132.6955  144.8071  127.5515 O   0  0  0  0  0  0  0  0  0  0  0  0
  130.3810  144.2375  126.4545 O   0  0  0  0  0  0  0  0  0  0  0  0
  130.6237  144.0587  128.8568 O   0  0  0  0  0  0  0  0  0  0  0  0
  1  2  1  0
  2  3  2  0
  3  4  1  0
  4  5  2  0
  5  6  1  0
  6  7  1  0
  7  8  2  0
  8  9  1  0
  9 10  2  0
 10 11  1  0
 11 12  1  0
 12 13  2  0
 13 14  1  0
 14 15  1  0
 14 16  2  0
 16 17  1  0
 17 18  1  0
 18 19  1  0
 19 20  2  0
 20 21  1  0
 21 22  2  0
 22 23  1  0
 23 24  2  0
 24 25  1  0
 25 26  1  0
 25 27  2  0
 25 28  2  0
 17 29  2  0
 10 30  1  0
 30 31  2  0
 30 32  1  0
 32 33  1  0
 32 34  2  0
 32 35  2  0
  5 36  1  0
 36 37  2  0
 37 38  1  0
 38 39  2  0
 38 40  1  0
 40 41  2  0
 41 42  1  0
 42 43  2  0
 43 44  1  0
 44 45  2  0
 45 46  1  0
 46 47  2  0
  3 48  1  0
 48 49  1  0
 48 50  2  0
 48 51  2  0
 37  2  1  0
 45 40  1  0
 31  7  1  0
 46 36  1  0
 29 12  1  0
 24 19  1  0
M  END
$$$$
