
     RDKit          3D

 51 56  0  0  0  0  0  0  0  0999 V2000
  193.5911  171.6405  147.4096 N   0  0  0  0  0  0  0  0  0  0  0  0
  193.0383  172.7836  148.0629 C   0  0  0  0  0  0  0  0  0  0  0  0
  191.9313  172.6621  148.8688 C   0  0  0  0  0  0  0  0  0  0  0  0
  191.4184  173.7790  149.4848 C   0  0  0  0  0  0  0  0  0  0  0  0
  191.9864  175.0495  149.3205 C   0  0  0  0  0  0  0  0  0  0  0  0
  191.4433  176.1747  149.9705 N   0  0  0  0  0  0  0  0  0  0  0  0
  190.2634  176.2474  150.7213 C   0  0  0  0  0  0  0  0  0  0  0  0
  189.7198  177.4706  151.0115 C   0  0  0  0  0  0  0  0  0  0  0  0
  188.5603  177.6512  151.7732 C   0  0  0  0  0  0  0  0  0  0  0  0
  187.9175  176.5391  152.2669 C   0  0  0  0  0  0  0  0  0  0  0  0
  186.7645  176.6412  153.0308 N   0  0  0  0  0  0  0  0  0  0  0  0
  186.0469  177.8094  153.3717 C   0  0  0  0  0  0  0  0  0  0  0  0
  185.4671  178.0458  154.5480 N   0  0  0  0  0  0  0  0  0  0  0  0
  184.8077  179.1761  154.7882 C   0  0  0  0  0  0  0  0  0  0  0  0
  184.0419  179.4731  156.3600 Cl  0  0  0  0  0  0  0  0  0  0  0  0
  184.6897  180.1389  153.8626 N   0  0  0  0  0  0  0  0  0  0  0  0
  185.2749  179.9296  152.6377 C   0  0  0  0  0  0  0  0  0  0  0  0
  185.1572  180.9402  151.6518 N   0  0  0  0  0  0  0  0  0  0  0  0
  185.7910  181.0048  150.3996 C   0  0  0  0  0  0  0  0  0  0  0  0
  186.8662  180.2365  150.0613 C   0  0  0  0  0  0  0  0  0  0  0  0
  187.4735  180.3267  148.8029 C   0  0  0  0  0  0  0  0  0  0  0  0
  186.9670  181.2143  147.8917 C   0  0  0  0  0  0  0  0  0  0  0  0
  185.8921  181.9929  148.2085 C   0  0  0  0  0  0  0  0  0  0  0  0
  185.2995  181.8992  149.4480 C   0  0  0  0  0  0  0  0  0  0  0  0
  183.9324  182.8808  149.8710 S   0  0  0  0  0  6  0  0  0  0  0  0
  184.0099  184.3153  148.9877 O   0  0  0  0  0  0  0  0  0  0  0  0
  183.9126  183.1853  151.3481 O   0  0  0  0  0  0  0  0  0  0  0  0
  182.6340  182.2030  149.5206 O   0  0  0  0  0  0  0  0  0  0  0  0
  185.9206  178.7943  152.4386 N   0  0  0  0  0  0  0  0  0  0  0  0
  188.4805  175.2798  151.9660 C   0  0  0  0  0  0  0  0  0  0  0  0
  189.6184  175.1336  151.2165 C   0  0  0  0  0  0  0  0  0  0  0  0
  187.6505  173.8796  152.6008 S   0  0  0  0  0  6  0  0  0  0  0  0
  187.7778  172.6204  151.5046 O   0  0  0  0  0  0  0  0  0  0  0  0
  186.1812  174.2261  152.8070 O   0  0  0  0  0  0  0  0  0  0  0  0
  188.2439  173.4305  153.9261 O   0  0  0  0  0  0  0  0  0  0  0  0
  193.0875  175.1379  148.5154 C   0  0  0  0  0  0  0  0  0  0  0  0
  193.6182  174.0029  147.8814 C   0  0  0  0  0  0  0  0  0  0  0  0
  194.8022  174.0536  147.0320 C   0  0  0  0  0  0  0  0  0  0  0  0
  195.2711  173.0340  146.4657 O   0  0  0  0  0  0  0  0  0  0  0  0
  195.4931  175.3170  146.8093 C   0  0  0  0  0  0  0  0  0  0  0  0
  196.6108  175.3957  146.0137 C   0  0  0  0  0  0  0  0  0  0  0  0
  197.2422  176.6298  145.8282 C   0  0  0  0  0  0  0  0  0  0  0  0
  196.7268  177.7475  146.4513 C   0  0  0  0  0  0  0  0  0  0  0  0
  195.5948  177.6609  147.2554 C   0  0  0  0  0  0  0  0  0  0  0  0
  194.9845  176.4372  147.4278 C   0  0  0  0  0  0  0  0  0  0  0  0
  193.7902  176.3768  148.2821 C   0  0  0  0  0  0  0  0  0  0  0  0
  193.3941  177.4282  148.8100 O   0  0  0  0  0  0  0  0  0  0  0  0
  191.2088  171.0877  149.0854 S   0  0  0  0  0  6  0  0  0  0  0  0
  192.1936  170.0705  149.9731 O   0  0  0  0  0  0  0  0  0  0  0  0
  189.8545  171.2395  149.7562 O   0  0  0  0  0  0  0  0  0  0  0  0
  190.9567  170.4267  147.7596 O   0  0  0  0  0  0  0  0  0  0  0  0
  1  2  1  0
  2  3  2  0
  3  4  1  0
  4  5  2  0
  5  6  1  0
  6  7  1  0
  7  8  2  0
  8  9  1  0
  9 10  2  0
 10 11  1  0
 11 12  1  0
 12 13  2  0
 13 14  1  0
 14 15  1  0
 14 16  2  0
 16 17  1  0
 17 18  1  0
 18 19  1  0
 19 20  2  0
 20 21  1  0
 21 22  2  0
 22 23  1  0
 23 24  2  0
 24 25  1  0
 25 26  1  0
 25 27  2  0
 25 28  2  0
 17 29  2  0
 10 30  1  0
 30 31  2  0
 30 32  1  0
 32 33  1  0
 32 34  2  0
 32 35  2  0
  5 36  1  0
 36 37  2  0
 37 38  1  0
 38 39  2  0
 38 40  1  0
 40 41  2  0
 41 42  1  0
 42 43  2  0
 43 44  1  0
 44 45  2  0
 45 46  1  0
 46 47  2  0
  3 48  1  0
 48 49  1  0
 48 50  2  0
 48 51  2  0
 37  2  1  0
 45 40  1  0
 31  7  1  0
 46 36  1  0
 29 12  1  0
 24 19  1  0
M  END
$$$$
