
     RDKit          3D

 51 56  0  0  0  0  0  0  0  0999 V2000
  112.4328  169.6637  147.0992 N   0  0  0  0  0  0  0  0  0  0  0  0
  113.7515  169.1190  147.0411 C   0  0  0  0  0  0  0  0  0  0  0  0
  114.7048  169.6789  146.2242 C   0  0  0  0  0  0  0  0  0  0  0  0
  115.9663  169.1339  146.1861 C   0  0  0  0  0  0  0  0  0  0  0  0
  116.3210  168.0177  146.9556 C   0  0  0  0  0  0  0  0  0  0  0  0
  117.6239  167.4856  146.9015 N   0  0  0  0  0  0  0  0  0  0  0  0
  118.1383  166.5633  145.9818 C   0  0  0  0  0  0  0  0  0  0  0  0
  119.1729  166.9294  145.1624 C   0  0  0  0  0  0  0  0  0  0  0  0
  119.7400  166.0919  144.1959 C   0  0  0  0  0  0  0  0  0  0  0  0
  119.2359  164.8198  144.0499 C   0  0  0  0  0  0  0  0  0  0  0  0
  119.7468  163.9351  143.1120 N   0  0  0  0  0  0  0  0  0  0  0  0
  120.0090  164.1723  141.7441 C   0  0  0  0  0  0  0  0  0  0  0  0
  120.4170  163.2580  140.8646 N   0  0  0  0  0  0  0  0  0  0  0  0
  120.6422  163.5654  139.5899 C   0  0  0  0  0  0  0  0  0  0  0  0
  121.1854  162.3352  138.4336 Cl  0  0  0  0  0  0  0  0  0  0  0  0
  120.4716  164.8092  139.1193 N   0  0  0  0  0  0  0  0  0  0  0  0
  120.0516  165.7780  139.9978 C   0  0  0  0  0  0  0  0  0  0  0  0
  119.8674  167.0959  139.5118 N   0  0  0  0  0  0  0  0  0  0  0  0
  119.5453  168.2507  140.2443 C   0  0  0  0  0  0  0  0  0  0  0  0
  118.7827  168.2345  141.3753 C   0  0  0  0  0  0  0  0  0  0  0  0
  118.4811  169.4055  142.0813 C   0  0  0  0  0  0  0  0  0  0  0  0
  118.9700  170.5967  141.6160 C   0  0  0  0  0  0  0  0  0  0  0  0
  119.7349  170.6367  140.4867 C   0  0  0  0  0  0  0  0  0  0  0  0
  120.0277  169.4813  139.7970 C   0  0  0  0  0  0  0  0  0  0  0  0
  120.9978  169.5104  138.3585 S   0  0  0  0  0  6  0  0  0  0  0  0
  122.3939  168.6060  138.6363 O   0  0  0  0  0  0  0  0  0  0  0  0
  121.3657  170.9217  137.9742 O   0  0  0  0  0  0  0  0  0  0  0  0
  120.2783  168.8856  137.1922 O   0  0  0  0  0  0  0  0  0  0  0  0
  119.8390  165.4327  141.2552 N   0  0  0  0  0  0  0  0  0  0  0  0
  118.1695  164.4456  144.8960 C   0  0  0  0  0  0  0  0  0  0  0  0
  117.6339  165.2882  145.8347 C   0  0  0  0  0  0  0  0  0  0  0  0
  117.5430  162.8270  144.6965 S   0  0  0  0  0  6  0  0  0  0  0  0
  117.0847  162.6069  143.1011 O   0  0  0  0  0  0  0  0  0  0  0  0
  116.3302  162.6502  145.6016 O   0  0  0  0  0  0  0  0  0  0  0  0
  118.5827  161.7768  145.0514 O   0  0  0  0  0  0  0  0  0  0  0  0
  115.3525  167.4849  147.7597 C   0  0  0  0  0  0  0  0  0  0  0  0
  114.0610  168.0342  147.8049 C   0  0  0  0  0  0  0  0  0  0  0  0
  113.0077  167.5067  148.6641 C   0  0  0  0  0  0  0  0  0  0  0  0
  111.8528  168.0020  148.6984 O   0  0  0  0  0  0  0  0  0  0  0  0
  113.2687  166.3634  149.5288 C   0  0  0  0  0  0  0  0  0  0  0  0
  112.2959  165.8442  150.3489 C   0  0  0  0  0  0  0  0  0  0  0  0
  112.5912  164.7458  151.1627 C   0  0  0  0  0  0  0  0  0  0  0  0
  113.8594  164.2041  151.1246 C   0  0  0  0  0  0  0  0  0  0  0  0
  114.8397  164.7346  150.2919 C   0  0  0  0  0  0  0  0  0  0  0  0
  114.5324  165.8172  149.4963 C   0  0  0  0  0  0  0  0  0  0  0  0
  115.5878  166.3552  148.6266 C   0  0  0  0  0  0  0  0  0  0  0  0
  116.7039  165.8125  148.6559 O   0  0  0  0  0  0  0  0  0  0  0  0
  114.2820  171.0695  145.2571 S   0  0  0  0  0  6  0  0  0  0  0  0
  112.9679  170.7627  144.2715 O   0  0  0  0  0  0  0  0  0  0  0  0
  114.0025  172.2534  146.1667 O   0  0  0  0  0  0  0  0  0  0  0  0
  115.4258  171.4733  144.3701 O   0  0  0  0  0  0  0  0  0  0  0  0
  1  2  1  0
  2  3  2  0
  3  4  1  0
  4  5  2  0
  5  6  1  0
  6  7  1  0
  7  8  2  0
  8  9  1  0
  9 10  2  0
 10 11  1  0
 11 12  1  0
 12 13  2  0
 13 14  1  0
 14 15  1  0
 14 16  2  0
 16 17  1  0
 17 18  1  0
 18 19  1  0
 19 20  2  0
 20 21  1  0
 21 22  2  0
 22 23  1  0
 23 24  2  0
 24 25  1  0
 25 26  1  0
 25 27  2  0
 25 28  2  0
 17 29  2  0
 10 30  1  0
 30 31  2  0
 30 32  1  0
 32 33  1  0
 32 34  2  0
 32 35  2  0
  5 36  1  0
 36 37  2  0
 37 38  1  0
 38 39  2  0
 38 40  1  0
 40 41  2  0
 41 42  1  0
 42 43  2  0
 43 44  1  0
 44 45  2  0
 45 46  1  0
 46 47  2  0
  3 48  1  0
 48 49  1  0
 48 50  2  0
 48 51  2  0
 37  2  1  0
 45 40  1  0
 31  7  1  0
 46 36  1  0
 29 12  1  0
 24 19  1  0
M  END
$$$$
