
     RDKit          3D

 51 56  0  0  0  0  0  0  0  0999 V2000
  120.6613  164.9966  149.8113 N   0  0  0  0  0  0  0  0  0  0  0  0
  119.8482  165.7285  148.8934 C   0  0  0  0  0  0  0  0  0  0  0  0
  119.1556  165.0786  147.8997 C   0  0  0  0  0  0  0  0  0  0  0  0
  118.3813  165.8074  147.0283 C   0  0  0  0  0  0  0  0  0  0  0  0
  118.2705  167.2017  147.1151 C   0  0  0  0  0  0  0  0  0  0  0  0
  117.4633  167.9212  146.2126 N   0  0  0  0  0  0  0  0  0  0  0  0
  117.7683  168.2982  144.8988 C   0  0  0  0  0  0  0  0  0  0  0  0
  116.7777  168.7814  144.0858 C   0  0  0  0  0  0  0  0  0  0  0  0
  116.9740  169.1612  142.7538 C   0  0  0  0  0  0  0  0  0  0  0  0
  118.2354  169.0469  142.2159 C   0  0  0  0  0  0  0  0  0  0  0  0
  118.5043  169.4026  140.9027 N   0  0  0  0  0  0  0  0  0  0  0  0
  117.8591  168.9520  139.7294 C   0  0  0  0  0  0  0  0  0  0  0  0
  118.2305  169.2406  138.4825 N   0  0  0  0  0  0  0  0  0  0  0  0
  117.5655  168.7741  137.4289 C   0  0  0  0  0  0  0  0  0  0  0  0
  118.0744  169.1693  135.7766 Cl  0  0  0  0  0  0  0  0  0  0  0  0
  116.4868  167.9890  137.5617 N   0  0  0  0  0  0  0  0  0  0  0  0
  116.0748  167.6706  138.8327 C   0  0  0  0  0  0  0  0  0  0  0  0
  114.9364  166.8412  138.9855 N   0  0  0  0  0  0  0  0  0  0  0  0
  114.0696  166.7566  140.0879 C   0  0  0  0  0  0  0  0  0  0  0  0
  113.3411  167.8118  140.5534 C   0  0  0  0  0  0  0  0  0  0  0  0
  112.4859  167.6917  141.6555 C   0  0  0  0  0  0  0  0  0  0  0  0
  112.3839  166.4765  142.2779 C   0  0  0  0  0  0  0  0  0  0  0  0
  113.1033  165.4072  141.8294 C   0  0  0  0  0  0  0  0  0  0  0  0
  113.9427  165.5321  140.7449 C   0  0  0  0  0  0  0  0  0  0  0  0
  114.8669  164.1851  140.1593 S   0  0  0  0  0  6  0  0  0  0  0  0
  116.5053  164.5440  140.3342 O   0  0  0  0  0  0  0  0  0  0  0  0
  114.5544  163.8938  138.7129 O   0  0  0  0  0  0  0  0  0  0  0  0
  114.5897  162.9359  140.9536 O   0  0  0  0  0  0  0  0  0  0  0  0
  116.7618  168.1536  139.8526 N   0  0  0  0  0  0  0  0  0  0  0  0
  119.2542  168.5484  143.0567 C   0  0  0  0  0  0  0  0  0  0  0  0
  119.0321  168.1840  144.3589 C   0  0  0  0  0  0  0  0  0  0  0  0
  120.8491  168.4107  142.3567 S   0  0  0  0  0  6  0  0  0  0  0  0
  120.9923  166.9228  141.6021 O   0  0  0  0  0  0  0  0  0  0  0  0
  121.8879  168.5190  143.4659 O   0  0  0  0  0  0  0  0  0  0  0  0
  121.1057  169.5016  141.3300 O   0  0  0  0  0  0  0  0  0  0  0  0
  118.9688  167.8190  148.1150 C   0  0  0  0  0  0  0  0  0  0  0  0
  119.7628  167.0832  149.0093 C   0  0  0  0  0  0  0  0  0  0  0  0
  120.5059  167.7030  150.0999 C   0  0  0  0  0  0  0  0  0  0  0  0
  121.2166  167.0386  150.8960 O   0  0  0  0  0  0  0  0  0  0  0  0
  120.4452  169.1444  150.3043 C   0  0  0  0  0  0  0  0  0  0  0  0
  121.1349  169.7566  151.3231 C   0  0  0  0  0  0  0  0  0  0  0  0
  121.0471  171.1434  151.4819 C   0  0  0  0  0  0  0  0  0  0  0  0
  120.2659  171.8708  150.6081 C   0  0  0  0  0  0  0  0  0  0  0  0
  119.5703  171.2447  149.5787 C   0  0  0  0  0  0  0  0  0  0  0  0
  119.6675  169.8773  149.4359 C   0  0  0  0  0  0  0  0  0  0  0  0
  118.9222  169.2440  148.3389 C   0  0  0  0  0  0  0  0  0  0  0  0
  118.2383  169.9702  147.5999 O   0  0  0  0  0  0  0  0  0  0  0  0
  119.2816  163.3419  147.7747 S   0  0  0  0  0  6  0  0  0  0  0  0
  120.8454  162.8562  147.4411 O   0  0  0  0  0  0  0  0  0  0  0  0
  118.7872  162.7039  149.0614 O   0  0  0  0  0  0  0  0  0  0  0  0
  118.4028  162.8186  146.6737 O   0  0  0  0  0  0  0  0  0  0  0  0
  1  2  1  0
  2  3  2  0
  3  4  1  0
  4  5  2  0
  5  6  1  0
  6  7  1  0
  7  8  2  0
  8  9  1  0
  9 10  2  0
 10 11  1  0
 11 12  1  0
 12 13  2  0
 13 14  1  0
 14 15  1  0
 14 16  2  0
 16 17  1  0
 17 18  1  0
 18 19  1  0
 19 20  2  0
 20 21  1  0
 21 22  2  0
 22 23  1  0
 23 24  2  0
 24 25  1  0
 25 26  1  0
 25 27  2  0
 25 28  2  0
 17 29  2  0
 10 30  1  0
 30 31  2  0
 30 32  1  0
 32 33  1  0
 32 34  2  0
 32 35  2  0
  5 36  1  0
 36 37  2  0
 37 38  1  0
 38 39  2  0
 38 40  1  0
 40 41  2  0
 41 42  1  0
 42 43  2  0
 43 44  1  0
 44 45  2  0
 45 46  1  0
 46 47  2  0
  3 48  1  0
 48 49  1  0
 48 50  2  0
 48 51  2  0
 37  2  1  0
 45 40  1  0
 31  7  1  0
 46 36  1  0
 29 12  1  0
 24 19  1  0
M  END
$$$$
