
     RDKit          3D

 51 56  0  0  0  0  0  0  0  0999 V2000
  129.4146  149.5646  131.9352 N   0  0  0  0  0  0  0  0  0  0  0  0
  128.6895  148.8844  132.9603 C   0  0  0  0  0  0  0  0  0  0  0  0
  128.6108  147.5121  132.9691 C   0  0  0  0  0  0  0  0  0  0  0  0
  127.9050  146.8824  133.9668 C   0  0  0  0  0  0  0  0  0  0  0  0
  127.2558  147.5934  134.9851 C   0  0  0  0  0  0  0  0  0  0  0  0
  126.5462  146.9205  135.9987 N   0  0  0  0  0  0  0  0  0  0  0  0
  126.4002  145.5387  136.1736 C   0  0  0  0  0  0  0  0  0  0  0  0
  125.7513  145.0613  137.2812 C   0  0  0  0  0  0  0  0  0  0  0  0
  125.5749  143.7017  137.5598 C   0  0  0  0  0  0  0  0  0  0  0  0
  126.0801  142.7776  136.6741 C   0  0  0  0  0  0  0  0  0  0  0  0
  125.9446  141.4136  136.8855 N   0  0  0  0  0  0  0  0  0  0  0  0
  126.9124  140.4026  136.6925 C   0  0  0  0  0  0  0  0  0  0  0  0
  126.6533  139.1085  136.5083 N   0  0  0  0  0  0  0  0  0  0  0  0
  127.6266  138.2183  136.3335 C   0  0  0  0  0  0  0  0  0  0  0  0
  127.2627  136.4997  136.0901 Cl  0  0  0  0  0  0  0  0  0  0  0  0
  128.9198  138.5722  136.3328 N   0  0  0  0  0  0  0  0  0  0  0  0
  129.2245  139.8984  136.5201 C   0  0  0  0  0  0  0  0  0  0  0  0
  130.5877  140.2842  136.5208 N   0  0  0  0  0  0  0  0  0  0  0  0
  131.7213  139.4549  136.5550 C   0  0  0  0  0  0  0  0  0  0  0  0
  131.6548  138.0928  136.5873 C   0  0  0  0  0  0  0  0  0  0  0  0
  132.8060  137.2964  136.6206 C   0  0  0  0  0  0  0  0  0  0  0  0
  134.0295  137.9109  136.6203 C   0  0  0  0  0  0  0  0  0  0  0  0
  134.1198  139.2721  136.5883 C   0  0  0  0  0  0  0  0  0  0  0  0
  132.9836  140.0495  136.5557 C   0  0  0  0  0  0  0  0  0  0  0  0
  133.0765  141.7819  136.5157 S   0  0  0  0  0  6  0  0  0  0  0  0
  132.1519  142.3968  137.7848 O   0  0  0  0  0  0  0  0  0  0  0  0
  132.5758  142.3272  135.2016 O   0  0  0  0  0  0  0  0  0  0  0  0
  134.4897  142.2656  136.7093 O   0  0  0  0  0  0  0  0  0  0  0  0
  128.2297  140.7510  136.6901 N   0  0  0  0  0  0  0  0  0  0  0  0
  126.7485  143.2730  135.5335 C   0  0  0  0  0  0  0  0  0  0  0  0
  126.9061  144.6117  135.2866 C   0  0  0  0  0  0  0  0  0  0  0  0
  127.3827  142.0851  134.4204 S   0  0  0  0  0  6  0  0  0  0  0  0
  126.1861  140.9688  134.0661 O   0  0  0  0  0  0  0  0  0  0  0  0
  128.5620  141.3747  135.0730 O   0  0  0  0  0  0  0  0  0  0  0  0
  127.8473  142.7259  133.1228 O   0  0  0  0  0  0  0  0  0  0  0  0
  127.3543  148.9563  134.9507 C   0  0  0  0  0  0  0  0  0  0  0  0
  128.0724  149.6084  133.9355 C   0  0  0  0  0  0  0  0  0  0  0  0
  128.2168  151.0581  133.8760 C   0  0  0  0  0  0  0  0  0  0  0  0
  128.8594  151.6358  132.9631 O   0  0  0  0  0  0  0  0  0  0  0  0
  127.6065  151.8997  134.8970 C   0  0  0  0  0  0  0  0  0  0  0  0
  127.7252  153.2684  134.8670 C   0  0  0  0  0  0  0  0  0  0  0  0
  127.1229  154.0368  135.8684 C   0  0  0  0  0  0  0  0  0  0  0  0
  126.4189  153.4011  136.8701 C   0  0  0  0  0  0  0  0  0  0  0  0
  126.3026  152.0149  136.8944 C   0  0  0  0  0  0  0  0  0  0  0  0
  126.9020  151.2722  135.9001 C   0  0  0  0  0  0  0  0  0  0  0  0
  126.7613  149.8103  135.9517 C   0  0  0  0  0  0  0  0  0  0  0  0
  126.1153  149.3170  136.8901 O   0  0  0  0  0  0  0  0  0  0  0  0
  129.4121  146.6086  131.7085 S   0  0  0  0  0  6  0  0  0  0  0  0
  128.3208  145.9550  130.6248 O   0  0  0  0  0  0  0  0  0  0  0  0
  130.4031  147.5090  130.9912 O   0  0  0  0  0  0  0  0  0  0  0  0
  130.2084  145.4727  132.2865 O   0  0  0  0  0  0  0  0  0  0  0  0
  1  2  1  0
  2  3  2  0
  3  4  1  0
  4  5  2  0
  5  6  1  0
  6  7  1  0
  7  8  2  0
  8  9  1  0
  9 10  2  0
 10 11  1  0
 11 12  1  0
 12 13  2  0
 13 14  1  0
 14 15  1  0
 14 16  2  0
 16 17  1  0
 17 18  1  0
 18 19  1  0
 19 20  2  0
 20 21  1  0
 21 22  2  0
 22 23  1  0
 23 24  2  0
 24 25  1  0
 25 26  1  0
 25 27  2  0
 25 28  2  0
 17 29  2  0
 10 30  1  0
 30 31  2  0
 30 32  1  0
 32 33  1  0
 32 34  2  0
 32 35  2  0
  5 36  1  0
 36 37  2  0
 37 38  1  0
 38 39  2  0
 38 40  1  0
 40 41  2  0
 41 42  1  0
 42 43  2  0
 43 44  1  0
 44 45  2  0
 45 46  1  0
 46 47  2  0
  3 48  1  0
 48 49  1  0
 48 50  2  0
 48 51  2  0
 37  2  1  0
 45 40  1  0
 31  7  1  0
 46 36  1  0
 29 12  1  0
 24 19  1  0
M  END
$$$$
