
     RDKit          3D

 51 56  0  0  0  0  0  0  0  0999 V2000
  121.4498  171.1781  141.6737 N   0  0  0  0  0  0  0  0  0  0  0  0
  120.2497  170.5994  142.1876 C   0  0  0  0  0  0  0  0  0  0  0  0
  119.5602  171.2088  143.2088 C   0  0  0  0  0  0  0  0  0  0  0  0
  118.4083  170.6295  143.6859 C   0  0  0  0  0  0  0  0  0  0  0  0
  117.9054  169.4292  143.1661 C   0  0  0  0  0  0  0  0  0  0  0  0
  116.7184  168.8632  143.6702 N   0  0  0  0  0  0  0  0  0  0  0  0
  116.5775  167.9779  144.7460 C   0  0  0  0  0  0  0  0  0  0  0  0
  117.3663  168.1295  145.8554 C   0  0  0  0  0  0  0  0  0  0  0  0
  117.3201  167.2854  146.9700 C   0  0  0  0  0  0  0  0  0  0  0  0
  116.4316  166.2345  146.9634 C   0  0  0  0  0  0  0  0  0  0  0  0
  116.3314  165.3562  148.0320 N   0  0  0  0  0  0  0  0  0  0  0  0
  117.1875  164.2805  148.3577 C   0  0  0  0  0  0  0  0  0  0  0  0
  117.1757  163.6022  149.5046 N   0  0  0  0  0  0  0  0  0  0  0  0
  118.0191  162.5987  149.7324 C   0  0  0  0  0  0  0  0  0  0  0  0
  117.9891  161.7075  151.2654 Cl  0  0  0  0  0  0  0  0  0  0  0  0
  118.9263  162.2142  148.8230 N   0  0  0  0  0  0  0  0  0  0  0  0
  118.9673  162.8911  147.6285 C   0  0  0  0  0  0  0  0  0  0  0  0
  119.9214  162.4934  146.6597 N   0  0  0  0  0  0  0  0  0  0  0  0
  119.9183  162.7636  145.2810 C   0  0  0  0  0  0  0  0  0  0  0  0
  118.9216  163.4511  144.6525 C   0  0  0  0  0  0  0  0  0  0  0  0
  118.9510  163.7030  143.2755 C   0  0  0  0  0  0  0  0  0  0  0  0
  120.0145  163.2424  142.5465 C   0  0  0  0  0  0  0  0  0  0  0  0
  121.0227  162.5525  143.1542 C   0  0  0  0  0  0  0  0  0  0  0  0
  120.9876  162.3081  144.5090 C   0  0  0  0  0  0  0  0  0  0  0  0
  122.2591  161.4319  145.3010 S   0  0  0  0  0  6  0  0  0  0  0  0
  123.4119  161.0024  144.1476 O   0  0  0  0  0  0  0  0  0  0  0  0
  121.7294  160.1967  145.9853 O   0  0  0  0  0  0  0  0  0  0  0  0
  122.9502  162.2760  146.3393 O   0  0  0  0  0  0  0  0  0  0  0  0
  118.1132  163.8815  147.4409 N   0  0  0  0  0  0  0  0  0  0  0  0
  115.6201  166.0811  145.8183 C   0  0  0  0  0  0  0  0  0  0  0  0
  115.6874  166.9245  144.7404 C   0  0  0  0  0  0  0  0  0  0  0  0
  114.4981  164.7419  145.8281 S   0  0  0  0  0  6  0  0  0  0  0  0
  115.3448  163.3129  145.6166 O   0  0  0  0  0  0  0  0  0  0  0  0
  113.5067  164.9180  144.6847 O   0  0  0  0  0  0  0  0  0  0  0  0
  113.7329  164.6624  147.1389 O   0  0  0  0  0  0  0  0  0  0  0  0
  118.6117  168.8486  142.1499 C   0  0  0  0  0  0  0  0  0  0  0  0
  119.7895  169.4323  141.6564 C   0  0  0  0  0  0  0  0  0  0  0  0
  120.5590  168.8541  140.5612 C   0  0  0  0  0  0  0  0  0  0  0  0
  121.6139  169.3808  140.1253 O   0  0  0  0  0  0  0  0  0  0  0  0
  120.1176  167.6201  139.9245 C   0  0  0  0  0  0  0  0  0  0  0  0
  120.8222  167.0515  138.8907 C   0  0  0  0  0  0  0  0  0  0  0  0
  120.3609  165.8662  138.3090 C   0  0  0  0  0  0  0  0  0  0  0  0
  119.2025  165.2902  138.7878 C   0  0  0  0  0  0  0  0  0  0  0  0
  118.4940  165.8710  139.8349 C   0  0  0  0  0  0  0  0  0  0  0  0
  118.9620  167.0391  140.3971 C   0  0  0  0  0  0  0  0  0  0  0  0
  118.1931  167.6288  141.5020 C   0  0  0  0  0  0  0  0  0  0  0  0
  117.1584  167.0497  141.8698 O   0  0  0  0  0  0  0  0  0  0  0  0
  120.1711  172.7044  143.8702 S   0  0  0  0  0  6  0  0  0  0  0  0
  119.5168  174.0356  143.1006 O   0  0  0  0  0  0  0  0  0  0  0  0
  119.8834  172.7543  145.3609 O   0  0  0  0  0  0  0  0  0  0  0  0
  121.6641  172.7863  143.7208 O   0  0  0  0  0  0  0  0  0  0  0  0
  1  2  1  0
  2  3  2  0
  3  4  1  0
  4  5  2  0
  5  6  1  0
  6  7  1  0
  7  8  2  0
  8  9  1  0
  9 10  2  0
 10 11  1  0
 11 12  1  0
 12 13  2  0
 13 14  1  0
 14 15  1  0
 14 16  2  0
 16 17  1  0
 17 18  1  0
 18 19  1  0
 19 20  2  0
 20 21  1  0
 21 22  2  0
 22 23  1  0
 23 24  2  0
 24 25  1  0
 25 26  1  0
 25 27  2  0
 25 28  2  0
 17 29  2  0
 10 30  1  0
 30 31  2  0
 30 32  1  0
 32 33  1  0
 32 34  2  0
 32 35  2  0
  5 36  1  0
 36 37  2  0
 37 38  1  0
 38 39  2  0
 38 40  1  0
 40 41  2  0
 41 42  1  0
 42 43  2  0
 43 44  1  0
 44 45  2  0
 45 46  1  0
 46 47  2  0
  3 48  1  0
 48 49  1  0
 48 50  2  0
 48 51  2  0
 37  2  1  0
 45 40  1  0
 31  7  1  0
 46 36  1  0
 29 12  1  0
 24 19  1  0
M  END
$$$$
