
     RDKit          3D

 51 56  0  0  0  0  0  0  0  0999 V2000
  129.7288  139.0256  135.5218 N   0  0  0  0  0  0  0  0  0  0  0  0
  128.8186  139.9994  135.0094 C   0  0  0  0  0  0  0  0  0  0  0  0
  128.8038  140.3072  133.6698 C   0  0  0  0  0  0  0  0  0  0  0  0
  127.9185  141.2497  133.2030 C   0  0  0  0  0  0  0  0  0  0  0  0
  127.0218  141.9157  134.0495 C   0  0  0  0  0  0  0  0  0  0  0  0
  126.1208  142.8714  133.5412 N   0  0  0  0  0  0  0  0  0  0  0  0
  125.9492  144.1976  133.9573 C   0  0  0  0  0  0  0  0  0  0  0  0
  125.2153  145.0595  133.1863 C   0  0  0  0  0  0  0  0  0  0  0  0
  125.0059  146.4064  133.5008 C   0  0  0  0  0  0  0  0  0  0  0  0
  125.5668  146.9081  134.6529 C   0  0  0  0  0  0  0  0  0  0  0  0
  125.4031  148.2332  135.0278 N   0  0  0  0  0  0  0  0  0  0  0  0
  126.2387  149.3322  134.7277 C   0  0  0  0  0  0  0  0  0  0  0  0
  125.9033  150.6159  134.8519 N   0  0  0  0  0  0  0  0  0  0  0  0
  126.7526  151.5934  134.5463 C   0  0  0  0  0  0  0  0  0  0  0  0
  126.2883  153.2965  134.7176 Cl  0  0  0  0  0  0  0  0  0  0  0  0
  127.9908  151.3427  134.0974 N   0  0  0  0  0  0  0  0  0  0  0  0
  128.3713  150.0304  133.9568 C   0  0  0  0  0  0  0  0  0  0  0  0
  129.6777  149.7533  133.4838 N   0  0  0  0  0  0  0  0  0  0  0  0
  130.2870  148.4992  133.3111 C   0  0  0  0  0  0  0  0  0  0  0  0
  129.6388  147.3154  133.5089 C   0  0  0  0  0  0  0  0  0  0  0  0
  130.2774  146.0827  133.3272 C   0  0  0  0  0  0  0  0  0  0  0  0
  131.5904  146.0745  132.9394 C   0  0  0  0  0  0  0  0  0  0  0  0
  132.2587  147.2467  132.7356 C   0  0  0  0  0  0  0  0  0  0  0  0
  131.6247  148.4557  132.9163 C   0  0  0  0  0  0  0  0  0  0  0  0
  132.4566  149.9575  132.6634 S   0  0  0  0  0  6  0  0  0  0  0  0
  132.8615  150.6047  134.1671 O   0  0  0  0  0  0  0  0  0  0  0  0
  131.6024  150.9343  131.8947 O   0  0  0  0  0  0  0  0  0  0  0  0
  133.7375  149.7590  131.8963 O   0  0  0  0  0  0  0  0  0  0  0  0
  127.4991  149.0890  134.2707 N   0  0  0  0  0  0  0  0  0  0  0  0
  126.3227  146.0170  135.4453 C   0  0  0  0  0  0  0  0  0  0  0  0
  126.5108  144.7013  135.1117 C   0  0  0  0  0  0  0  0  0  0  0  0
  127.0266  146.6716  136.9043 S   0  0  0  0  0  6  0  0  0  0  0  0
  125.8033  147.2204  137.9073 O   0  0  0  0  0  0  0  0  0  0  0  0
  127.9398  147.8340  136.5353 O   0  0  0  0  0  0  0  0  0  0  0  0
  127.8351  145.6253  137.6537 O   0  0  0  0  0  0  0  0  0  0  0  0
  127.0587  141.5864  135.3756 C   0  0  0  0  0  0  0  0  0  0  0  0
  127.9599  140.6255  135.8618 C   0  0  0  0  0  0  0  0  0  0  0  0
  128.0156  140.2333  137.2649 C   0  0  0  0  0  0  0  0  0  0  0  0
  128.8262  139.3737  137.6942 O   0  0  0  0  0  0  0  0  0  0  0  0
  127.1121  140.8399  138.2338 C   0  0  0  0  0  0  0  0  0  0  0  0
  127.1416  140.4907  139.5626 C   0  0  0  0  0  0  0  0  0  0  0  0
  126.2552  141.0988  140.4573 C   0  0  0  0  0  0  0  0  0  0  0  0
  125.3656  142.0411  139.9844 C   0  0  0  0  0  0  0  0  0  0  0  0
  125.3410  142.3902  138.6379 C   0  0  0  0  0  0  0  0  0  0  0  0
  126.2212  141.7815  137.7693 C   0  0  0  0  0  0  0  0  0  0  0  0
  126.1725  142.1711  136.3531 C   0  0  0  0  0  0  0  0  0  0  0  0
  125.3383  143.0237  136.0087 O   0  0  0  0  0  0  0  0  0  0  0  0
  129.9138  139.4889  132.5994 S   0  0  0  0  0  6  0  0  0  0  0  0
  129.1544  138.2895  131.7177 O   0  0  0  0  0  0  0  0  0  0  0  0
  130.5646  140.5018  131.6732 O   0  0  0  0  0  0  0  0  0  0  0  0
  131.0271  138.8420  133.3742 O   0  0  0  0  0  0  0  0  0  0  0  0
  1  2  1  0
  2  3  2  0
  3  4  1  0
  4  5  2  0
  5  6  1  0
  6  7  1  0
  7  8  2  0
  8  9  1  0
  9 10  2  0
 10 11  1  0
 11 12  1  0
 12 13  2  0
 13 14  1  0
 14 15  1  0
 14 16  2  0
 16 17  1  0
 17 18  1  0
 18 19  1  0
 19 20  2  0
 20 21  1  0
 21 22  2  0
 22 23  1  0
 23 24  2  0
 24 25  1  0
 25 26  1  0
 25 27  2  0
 25 28  2  0
 17 29  2  0
 10 30  1  0
 30 31  2  0
 30 32  1  0
 32 33  1  0
 32 34  2  0
 32 35  2  0
  5 36  1  0
 36 37  2  0
 37 38  1  0
 38 39  2  0
 38 40  1  0
 40 41  2  0
 41 42  1  0
 42 43  2  0
 43 44  1  0
 44 45  2  0
 45 46  1  0
 46 47  2  0
  3 48  1  0
 48 49  1  0
 48 50  2  0
 48 51  2  0
 37  2  1  0
 45 40  1  0
 31  7  1  0
 46 36  1  0
 29 12  1  0
 24 19  1  0
M  END
$$$$
