
     RDKit          3D

 51 56  0  0  0  0  0  0  0  0999 V2000
  125.4600  155.6800  144.7922 N   0  0  0  0  0  0  0  0  0  0  0  0
  125.5129  154.5198  143.9612 C   0  0  0  0  0  0  0  0  0  0  0  0
  126.0645  153.3499  144.4268 C   0  0  0  0  0  0  0  0  0  0  0  0
  126.1040  152.2481  143.6055 C   0  0  0  0  0  0  0  0  0  0  0  0
  125.5989  152.2725  142.2985 C   0  0  0  0  0  0  0  0  0  0  0  0
  125.6465  151.1255  141.4827 N   0  0  0  0  0  0  0  0  0  0  0  0
  124.8088  150.0041  141.5264 C   0  0  0  0  0  0  0  0  0  0  0  0
  124.5425  149.3125  140.3746 C   0  0  0  0  0  0  0  0  0  0  0  0
  123.7013  148.1966  140.3082 C   0  0  0  0  0  0  0  0  0  0  0  0
  123.0986  147.7572  141.4646 C   0  0  0  0  0  0  0  0  0  0  0  0
  122.2516  146.6591  141.4748 N   0  0  0  0  0  0  0  0  0  0  0  0
  122.5670  145.3196  141.7946 C   0  0  0  0  0  0  0  0  0  0  0  0
  121.6923  144.3875  142.1716 N   0  0  0  0  0  0  0  0  0  0  0  0
  122.0734  143.1450  142.4560 C   0  0  0  0  0  0  0  0  0  0  0  0
  120.8950  141.9178  142.9566 Cl  0  0  0  0  0  0  0  0  0  0  0  0
  123.3558  142.7613  142.3794 N   0  0  0  0  0  0  0  0  0  0  0  0
  124.2856  143.6959  141.9940 C   0  0  0  0  0  0  0  0  0  0  0  0
  125.6437  143.3018  141.9090 N   0  0  0  0  0  0  0  0  0  0  0  0
  126.7569  144.0977  141.5905 C   0  0  0  0  0  0  0  0  0  0  0  0
  126.6860  145.4465  141.3993 C   0  0  0  0  0  0  0  0  0  0  0  0
  127.8166  146.2094  141.0829 C   0  0  0  0  0  0  0  0  0  0  0  0
  129.0242  145.5753  140.9642 C   0  0  0  0  0  0  0  0  0  0  0  0
  129.1186  144.2268  141.1512 C   0  0  0  0  0  0  0  0  0  0  0  0
  128.0027  143.4823  141.4620 C   0  0  0  0  0  0  0  0  0  0  0  0
  128.1010  141.7666  141.7028 S   0  0  0  0  0  6  0  0  0  0  0  0
  126.9746  141.0194  140.6944 O   0  0  0  0  0  0  0  0  0  0  0  0
  127.8302  141.3987  143.1402 O   0  0  0  0  0  0  0  0  0  0  0  0
  129.4609  141.2327  141.3366 O   0  0  0  0  0  0  0  0  0  0  0  0
  123.8671  144.9188  141.7203 N   0  0  0  0  0  0  0  0  0  0  0  0
  123.3752  148.4723  142.6501 C   0  0  0  0  0  0  0  0  0  0  0  0
  124.2042  149.5629  142.6848 C   0  0  0  0  0  0  0  0  0  0  0  0
  122.6014  147.8997  144.1082 S   0  0  0  0  0  6  0  0  0  0  0  0
  122.8531  146.2507  144.2536 O   0  0  0  0  0  0  0  0  0  0  0  0
  121.1063  148.1785  144.0178 O   0  0  0  0  0  0  0  0  0  0  0  0
  123.1592  148.5860  145.3443 O   0  0  0  0  0  0  0  0  0  0  0  0
  125.0546  153.4491  141.8652 C   0  0  0  0  0  0  0  0  0  0  0  0
  125.0103  154.5799  142.6964 C   0  0  0  0  0  0  0  0  0  0  0  0
  124.4203  155.8458  142.2775 C   0  0  0  0  0  0  0  0  0  0  0  0
  124.3856  156.8551  143.0259 O   0  0  0  0  0  0  0  0  0  0  0  0
  123.8398  155.9814  140.9479 C   0  0  0  0  0  0  0  0  0  0  0  0
  123.2772  157.1618  140.5251 C   0  0  0  0  0  0  0  0  0  0  0  0
  122.7313  157.2464  139.2403 C   0  0  0  0  0  0  0  0  0  0  0  0
  122.7693  156.1375  138.4206 C   0  0  0  0  0  0  0  0  0  0  0  0
  123.3405  154.9455  138.8549 C   0  0  0  0  0  0  0  0  0  0  0  0
  123.8741  154.8787  140.1239 C   0  0  0  0  0  0  0  0  0  0  0  0
  124.4713  153.6069  140.5545 C   0  0  0  0  0  0  0  0  0  0  0  0
  124.4604  152.6552  139.7573 O   0  0  0  0  0  0  0  0  0  0  0  0
  126.6998  153.2998  146.0520 S   0  0  0  0  0  6  0  0  0  0  0  0
  127.6272  151.9344  146.3132 O   0  0  0  0  0  0  0  0  0  0  0  0
  127.5117  154.5558  146.3177 O   0  0  0  0  0  0  0  0  0  0  0  0
  125.5875  153.2890  147.0623 O   0  0  0  0  0  0  0  0  0  0  0  0
  1  2  1  0
  2  3  2  0
  3  4  1  0
  4  5  2  0
  5  6  1  0
  6  7  1  0
  7  8  2  0
  8  9  1  0
  9 10  2  0
 10 11  1  0
 11 12  1  0
 12 13  2  0
 13 14  1  0
 14 15  1  0
 14 16  2  0
 16 17  1  0
 17 18  1  0
 18 19  1  0
 19 20  2  0
 20 21  1  0
 21 22  2  0
 22 23  1  0
 23 24  2  0
 24 25  1  0
 25 26  1  0
 25 27  2  0
 25 28  2  0
 17 29  2  0
 10 30  1  0
 30 31  2  0
 30 32  1  0
 32 33  1  0
 32 34  2  0
 32 35  2  0
  5 36  1  0
 36 37  2  0
 37 38  1  0
 38 39  2  0
 38 40  1  0
 40 41  2  0
 41 42  1  0
 42 43  2  0
 43 44  1  0
 44 45  2  0
 45 46  1  0
 46 47  2  0
  3 48  1  0
 48 49  1  0
 48 50  2  0
 48 51  2  0
 37  2  1  0
 45 40  1  0
 31  7  1  0
 46 36  1  0
 29 12  1  0
 24 19  1  0
M  END
$$$$
