
     RDKit          3D

 51 56  0  0  0  0  0  0  0  0999 V2000
  123.8688  140.4843  129.5326 N   0  0  0  0  0  0  0  0  0  0  0  0
  124.4624  140.7424  130.8055 C   0  0  0  0  0  0  0  0  0  0  0  0
  125.7137  141.3047  130.8934 C   0  0  0  0  0  0  0  0  0  0  0  0
  126.2625  141.5412  132.1314 C   0  0  0  0  0  0  0  0  0  0  0  0
  125.5884  141.2273  133.3193 C   0  0  0  0  0  0  0  0  0  0  0  0
  126.1730  141.4882  134.5738 N   0  0  0  0  0  0  0  0  0  0  0  0
  127.3927  142.1232  134.8385 C   0  0  0  0  0  0  0  0  0  0  0  0
  127.6454  142.6075  136.0945 C   0  0  0  0  0  0  0  0  0  0  0  0
  128.8199  143.2774  136.4535 C   0  0  0  0  0  0  0  0  0  0  0  0
  129.7883  143.4677  135.4946 C   0  0  0  0  0  0  0  0  0  0  0  0
  130.9768  144.1242  135.7772 N   0  0  0  0  0  0  0  0  0  0  0  0
  131.2145  145.5164  135.8152 C   0  0  0  0  0  0  0  0  0  0  0  0
  132.4111  146.0991  135.7503 N   0  0  0  0  0  0  0  0  0  0  0  0
  132.5482  147.4218  135.7932 C   0  0  0  0  0  0  0  0  0  0  0  0
  134.1492  148.1797  135.7060 Cl  0  0  0  0  0  0  0  0  0  0  0  0
  131.4926  148.2411  135.9035 N   0  0  0  0  0  0  0  0  0  0  0  0
  130.2429  147.6753  135.9729 C   0  0  0  0  0  0  0  0  0  0  0  0
  129.1199  148.5311  136.0892 N   0  0  0  0  0  0  0  0  0  0  0  0
  127.7593  148.1848  136.0355 C   0  0  0  0  0  0  0  0  0  0  0  0
  127.2457  147.0645  136.6204 C   0  0  0  0  0  0  0  0  0  0  0  0
  125.8833  146.7500  136.5473 C   0  0  0  0  0  0  0  0  0  0  0  0
  125.0497  147.5970  135.8673 C   0  0  0  0  0  0  0  0  0  0  0  0
  125.5416  148.7233  135.2746 C   0  0  0  0  0  0  0  0  0  0  0  0
  126.8827  149.0267  135.3501 C   0  0  0  0  0  0  0  0  0  0  0  0
  127.5286  150.4535  134.6026 S   0  0  0  0  0  6  0  0  0  0  0  0
  128.0882  151.4853  135.8134 O   0  0  0  0  0  0  0  0  0  0  0  0
  126.4858  151.1550  133.7687 O   0  0  0  0  0  0  0  0  0  0  0  0
  128.6962  150.1301  133.7080 O   0  0  0  0  0  0  0  0  0  0  0  0
  130.1490  146.3583  135.9272 N   0  0  0  0  0  0  0  0  0  0  0  0
  129.5247  142.9674  134.2009 C   0  0  0  0  0  0  0  0  0  0  0  0
  128.3639  142.3145  133.8782 C   0  0  0  0  0  0  0  0  0  0  0  0
  130.7656  143.2181  132.9969 S   0  0  0  0  0  6  0  0  0  0  0  0
  132.2212  142.6263  133.5754 O   0  0  0  0  0  0  0  0  0  0  0  0
  130.8973  144.7113  132.7248 O   0  0  0  0  0  0  0  0  0  0  0  0
  130.4352  142.5051  131.6960 O   0  0  0  0  0  0  0  0  0  0  0  0
  124.3453  140.6717  133.1995 C   0  0  0  0  0  0  0  0  0  0  0  0
  123.7767  140.4257  131.9394 C   0  0  0  0  0  0  0  0  0  0  0  0
  122.4463  139.8534  131.7710 C   0  0  0  0  0  0  0  0  0  0  0  0
  121.9438  139.6339  130.6398 O   0  0  0  0  0  0  0  0  0  0  0  0
  121.6409  139.5112  132.9360 C   0  0  0  0  0  0  0  0  0  0  0  0
  120.3841  138.9702  132.8086 C   0  0  0  0  0  0  0  0  0  0  0  0
  119.6464  138.6574  133.9549 C   0  0  0  0  0  0  0  0  0  0  0  0
  120.1989  138.9000  135.1954 C   0  0  0  0  0  0  0  0  0  0  0  0
  121.4719  139.4478  135.3173 C   0  0  0  0  0  0  0  0  0  0  0  0
  122.1858  139.7504  134.1778 C   0  0  0  0  0  0  0  0  0  0  0  0
  123.5279  140.3272  134.3380 C   0  0  0  0  0  0  0  0  0  0  0  0
  123.9494  140.5186  135.4900 O   0  0  0  0  0  0  0  0  0  0  0  0
  126.5697  141.7021  129.4248 S   0  0  0  0  0  6  0  0  0  0  0  0
  128.0862  141.0015  129.3823 O   0  0  0  0  0  0  0  0  0  0  0  0
  125.7465  141.2669  128.2247 O   0  0  0  0  0  0  0  0  0  0  0  0
  126.7562  143.1879  129.2983 O   0  0  0  0  0  0  0  0  0  0  0  0
  1  2  1  0
  2  3  2  0
  3  4  1  0
  4  5  2  0
  5  6  1  0
  6  7  1  0
  7  8  2  0
  8  9  1  0
  9 10  2  0
 10 11  1  0
 11 12  1  0
 12 13  2  0
 13 14  1  0
 14 15  1  0
 14 16  2  0
 16 17  1  0
 17 18  1  0
 18 19  1  0
 19 20  2  0
 20 21  1  0
 21 22  2  0
 22 23  1  0
 23 24  2  0
 24 25  1  0
 25 26  1  0
 25 27  2  0
 25 28  2  0
 17 29  2  0
 10 30  1  0
 30 31  2  0
 30 32  1  0
 32 33  1  0
 32 34  2  0
 32 35  2  0
  5 36  1  0
 36 37  2  0
 37 38  1  0
 38 39  2  0
 38 40  1  0
 40 41  2  0
 41 42  1  0
 42 43  2  0
 43 44  1  0
 44 45  2  0
 45 46  1  0
 46 47  2  0
  3 48  1  0
 48 49  1  0
 48 50  2  0
 48 51  2  0
 37  2  1  0
 45 40  1  0
 31  7  1  0
 46 36  1  0
 29 12  1  0
 24 19  1  0
M  END
$$$$
