
     RDKit          3D

 51 56  0  0  0  0  0  0  0  0999 V2000
  134.6751  138.1820  129.2379 N   0  0  0  0  0  0  0  0  0  0  0  0
  134.4155  138.9784  128.0813 C   0  0  0  0  0  0  0  0  0  0  0  0
  134.2395  140.3372  128.1922 C   0  0  0  0  0  0  0  0  0  0  0  0
  133.9893  141.0802  127.0629 C   0  0  0  0  0  0  0  0  0  0  0  0
  133.9056  140.4993  125.7903 C   0  0  0  0  0  0  0  0  0  0  0  0
  133.6554  141.2872  124.6500 N   0  0  0  0  0  0  0  0  0  0  0  0
  133.4176  142.6661  124.5933 C   0  0  0  0  0  0  0  0  0  0  0  0
  134.0241  143.4185  123.6227 C   0  0  0  0  0  0  0  0  0  0  0  0
  133.8714  144.8033  123.4961 C   0  0  0  0  0  0  0  0  0  0  0  0
  133.0647  145.4614  124.3960 C   0  0  0  0  0  0  0  0  0  0  0  0
  132.8676  146.8327  124.3330 N   0  0  0  0  0  0  0  0  0  0  0  0
  133.8051  147.8318  123.9882 C   0  0  0  0  0  0  0  0  0  0  0  0
  133.6168  149.1453  124.1114 N   0  0  0  0  0  0  0  0  0  0  0  0
  134.5544  150.0221  123.7620 C   0  0  0  0  0  0  0  0  0  0  0  0
  134.2856  151.7668  123.9327 Cl  0  0  0  0  0  0  0  0  0  0  0  0
  135.7388  149.6347  123.2674 N   0  0  0  0  0  0  0  0  0  0  0  0
  135.9682  148.2878  123.1263 C   0  0  0  0  0  0  0  0  0  0  0  0
  137.2164  147.8666  122.6052 N   0  0  0  0  0  0  0  0  0  0  0  0
  137.7054  146.5549  122.4855 C   0  0  0  0  0  0  0  0  0  0  0  0
  137.1463  145.4840  123.1190 C   0  0  0  0  0  0  0  0  0  0  0  0
  137.6599  144.1892  122.9769 C   0  0  0  0  0  0  0  0  0  0  0  0
  138.7550  144.0017  122.1769 C   0  0  0  0  0  0  0  0  0  0  0  0
  139.3307  145.0584  121.5335 C   0  0  0  0  0  0  0  0  0  0  0  0
  138.8206  146.3293  121.6777 C   0  0  0  0  0  0  0  0  0  0  0  0
  139.5383  147.6867  120.8690 S   0  0  0  0  0  6  0  0  0  0  0  0
  140.7633  147.1206  119.8577 O   0  0  0  0  0  0  0  0  0  0  0  0
  140.1017  148.6776  121.8566 O   0  0  0  0  0  0  0  0  0  0  0  0
  138.5377  148.4104  120.0068 O   0  0  0  0  0  0  0  0  0  0  0  0
  135.0121  147.4494  123.4846 N   0  0  0  0  0  0  0  0  0  0  0  0
  132.4410  144.6830  125.3952 C   0  0  0  0  0  0  0  0  0  0  0  0
  132.6094  143.3266  125.4946 C   0  0  0  0  0  0  0  0  0  0  0  0
  131.4205  145.5356  126.5282 S   0  0  0  0  0  6  0  0  0  0  0  0
  130.1025  146.1694  125.7128 O   0  0  0  0  0  0  0  0  0  0  0  0
  132.2197  146.6690  127.1589 O   0  0  0  0  0  0  0  0  0  0  0  0
  130.9141  144.6158  127.6271 O   0  0  0  0  0  0  0  0  0  0  0  0
  134.0875  139.1468  125.7120 C   0  0  0  0  0  0  0  0  0  0  0  0
  134.3428  138.3794  126.8598 C   0  0  0  0  0  0  0  0  0  0  0  0
  134.5620  136.9387  126.8144 C   0  0  0  0  0  0  0  0  0  0  0  0
  134.7882  136.2571  127.8461 O   0  0  0  0  0  0  0  0  0  0  0  0
  134.5246  136.2297  125.5420 C   0  0  0  0  0  0  0  0  0  0  0  0
  134.7271  134.8725  125.4680 C   0  0  0  0  0  0  0  0  0  0  0  0
  134.6826  134.2334  124.2248 C   0  0  0  0  0  0  0  0  0  0  0  0
  134.4353  134.9830  123.0934 C   0  0  0  0  0  0  0  0  0  0  0  0
  134.2311  136.3568  123.1754 C   0  0  0  0  0  0  0  0  0  0  0  0
  134.2782  136.9712  124.4082 C   0  0  0  0  0  0  0  0  0  0  0  0
  134.0579  138.4232  124.4636 C   0  0  0  0  0  0  0  0  0  0  0  0
  133.8465  139.0244  123.3982 O   0  0  0  0  0  0  0  0  0  0  0  0
  134.3393  141.0793  129.7691 S   0  0  0  0  0  6  0  0  0  0  0  0
  135.8539  140.8891  130.4490 O   0  0  0  0  0  0  0  0  0  0  0  0
  133.9841  142.5521  129.6596 O   0  0  0  0  0  0  0  0  0  0  0  0
  133.3419  140.4688  130.7129 O   0  0  0  0  0  0  0  0  0  0  0  0
  1  2  1  0
  2  3  2  0
  3  4  1  0
  4  5  2  0
  5  6  1  0
  6  7  1  0
  7  8  2  0
  8  9  1  0
  9 10  2  0
 10 11  1  0
 11 12  1  0
 12 13  2  0
 13 14  1  0
 14 15  1  0
 14 16  2  0
 16 17  1  0
 17 18  1  0
 18 19  1  0
 19 20  2  0
 20 21  1  0
 21 22  2  0
 22 23  1  0
 23 24  2  0
 24 25  1  0
 25 26  1  0
 25 27  2  0
 25 28  2  0
 17 29  2  0
 10 30  1  0
 30 31  2  0
 30 32  1  0
 32 33  1  0
 32 34  2  0
 32 35  2  0
  5 36  1  0
 36 37  2  0
 37 38  1  0
 38 39  2  0
 38 40  1  0
 40 41  2  0
 41 42  1  0
 42 43  2  0
 43 44  1  0
 44 45  2  0
 45 46  1  0
 46 47  2  0
  3 48  1  0
 48 49  1  0
 48 50  2  0
 48 51  2  0
 37  2  1  0
 45 40  1  0
 31  7  1  0
 46 36  1  0
 29 12  1  0
 24 19  1  0
M  END
$$$$
