
     RDKit          3D

 51 56  0  0  0  0  0  0  0  0999 V2000
  189.4455  163.4473  115.3189 N   0  0  0  0  0  0  0  0  0  0  0  0
  189.9483  163.3783  116.6537 C   0  0  0  0  0  0  0  0  0  0  0  0
  189.1657  162.8882  117.6720 C   0  0  0  0  0  0  0  0  0  0  0  0
  189.6738  162.8341  118.9483 C   0  0  0  0  0  0  0  0  0  0  0  0
  190.9720  163.2643  119.2539 C   0  0  0  0  0  0  0  0  0  0  0  0
  191.4682  163.1898  120.5699 N   0  0  0  0  0  0  0  0  0  0  0  0
  190.9831  162.4121  121.6287 C   0  0  0  0  0  0  0  0  0  0  0  0
  191.8503  161.6378  122.3528 C   0  0  0  0  0  0  0  0  0  0  0  0
  191.4629  160.8088  123.4110 C   0  0  0  0  0  0  0  0  0  0  0  0
  190.1314  160.7595  123.7549 C   0  0  0  0  0  0  0  0  0  0  0  0
  189.6740  159.9596  124.7914 N   0  0  0  0  0  0  0  0  0  0  0  0
  189.9335  158.5885  125.0123 C   0  0  0  0  0  0  0  0  0  0  0  0
  189.6372  157.9140  126.1228 N   0  0  0  0  0  0  0  0  0  0  0  0
  189.9167  156.6195  126.2504 C   0  0  0  0  0  0  0  0  0  0  0  0
  189.5153  155.7383  127.7362 Cl  0  0  0  0  0  0  0  0  0  0  0  0
  190.5105  155.9222  125.2712 N   0  0  0  0  0  0  0  0  0  0  0  0
  190.8306  156.5851  124.1116 C   0  0  0  0  0  0  0  0  0  0  0  0
  191.4580  155.8584  123.0698 N   0  0  0  0  0  0  0  0  0  0  0  0
  191.7863  156.3060  121.7791 C   0  0  0  0  0  0  0  0  0  0  0  0
  190.8888  156.8950  120.9373 C   0  0  0  0  0  0  0  0  0  0  0  0
  191.2507  157.3298  119.6566 C   0  0  0  0  0  0  0  0  0  0  0  0
  192.5449  157.1550  119.2454 C   0  0  0  0  0  0  0  0  0  0  0  0
  193.4596  156.5683  120.0707 C   0  0  0  0  0  0  0  0  0  0  0  0
  193.0970  156.1428  121.3291 C   0  0  0  0  0  0  0  0  0  0  0  0
  194.2445  155.3935  122.3938 S   0  0  0  0  0  6  0  0  0  0  0  0
  194.4267  156.3699  123.7567 O   0  0  0  0  0  0  0  0  0  0  0  0
  195.5776  155.2016  121.7150 O   0  0  0  0  0  0  0  0  0  0  0  0
  193.7659  154.0450  122.8637 O   0  0  0  0  0  0  0  0  0  0  0  0
  190.5367  157.8701  124.0240 N   0  0  0  0  0  0  0  0  0  0  0  0
  189.2401  161.5588  123.0064 C   0  0  0  0  0  0  0  0  0  0  0  0
  189.6489  162.3620  121.9742 C   0  0  0  0  0  0  0  0  0  0  0  0
  187.5539  161.4835  123.4577 S   0  0  0  0  0  6  0  0  0  0  0  0
  187.3426  162.2569  124.9277 O   0  0  0  0  0  0  0  0  0  0  0  0
  187.1410  160.0229  123.5890 O   0  0  0  0  0  0  0  0  0  0  0  0
  186.6673  162.1576  122.4235 O   0  0  0  0  0  0  0  0  0  0  0  0
  191.7266  163.7441  118.2201 C   0  0  0  0  0  0  0  0  0  0  0  0
  191.2161  163.8039  116.9133 C   0  0  0  0  0  0  0  0  0  0  0  0
  191.9964  164.2902  115.7818 C   0  0  0  0  0  0  0  0  0  0  0  0
  191.5328  164.3430  114.6145 O   0  0  0  0  0  0  0  0  0  0  0  0
  193.3690  164.7397  115.9748 C   0  0  0  0  0  0  0  0  0  0  0  0
  194.1286  165.2034  114.9277 C   0  0  0  0  0  0  0  0  0  0  0  0
  195.4420  165.6244  115.1594 C   0  0  0  0  0  0  0  0  0  0  0  0
  195.9496  165.5648  116.4408 C   0  0  0  0  0  0  0  0  0  0  0  0
  195.1751  165.0944  117.4964 C   0  0  0  0  0  0  0  0  0  0  0  0
  193.8826  164.6833  117.2512 C   0  0  0  0  0  0  0  0  0  0  0  0
  193.0885  164.1920  118.3860 C   0  0  0  0  0  0  0  0  0  0  0  0
  193.6222  164.1661  119.5066 O   0  0  0  0  0  0  0  0  0  0  0  0
  187.5452  162.3481  117.3114 S   0  0  0  0  0  6  0  0  0  0  0  0
  187.3317  160.7338  117.6872 O   0  0  0  0  0  0  0  0  0  0  0  0
  186.5449  163.2085  118.0639 O   0  0  0  0  0  0  0  0  0  0  0  0
  187.2374  162.5149  115.8499 O   0  0  0  0  0  0  0  0  0  0  0  0
  1  2  1  0
  2  3  2  0
  3  4  1  0
  4  5  2  0
  5  6  1  0
  6  7  1  0
  7  8  2  0
  8  9  1  0
  9 10  2  0
 10 11  1  0
 11 12  1  0
 12 13  2  0
 13 14  1  0
 14 15  1  0
 14 16  2  0
 16 17  1  0
 17 18  1  0
 18 19  1  0
 19 20  2  0
 20 21  1  0
 21 22  2  0
 22 23  1  0
 23 24  2  0
 24 25  1  0
 25 26  1  0
 25 27  2  0
 25 28  2  0
 17 29  2  0
 10 30  1  0
 30 31  2  0
 30 32  1  0
 32 33  1  0
 32 34  2  0
 32 35  2  0
  5 36  1  0
 36 37  2  0
 37 38  1  0
 38 39  2  0
 38 40  1  0
 40 41  2  0
 41 42  1  0
 42 43  2  0
 43 44  1  0
 44 45  2  0
 45 46  1  0
 46 47  2  0
  3 48  1  0
 48 49  1  0
 48 50  2  0
 48 51  2  0
 37  2  1  0
 45 40  1  0
 31  7  1  0
 46 36  1  0
 29 12  1  0
 24 19  1  0
M  END
$$$$
