
     RDKit          3D

 51 56  0  0  0  0  0  0  0  0999 V2000
  205.4363  136.3912  139.0469 N   0  0  0  0  0  0  0  0  0  0  0  0
  205.0727  135.5736  137.9340 C   0  0  0  0  0  0  0  0  0  0  0  0
  205.9513  135.3735  136.8958 C   0  0  0  0  0  0  0  0  0  0  0  0
  205.5754  134.5830  135.8357 C   0  0  0  0  0  0  0  0  0  0  0  0
  204.3179  133.9677  135.7722 C   0  0  0  0  0  0  0  0  0  0  0  0
  203.9634  133.1568  134.6766 N   0  0  0  0  0  0  0  0  0  0  0  0
  204.1407  133.4273  133.3140 C   0  0  0  0  0  0  0  0  0  0  0  0
  203.7951  132.4817  132.3854 C   0  0  0  0  0  0  0  0  0  0  0  0
  203.9553  132.6447  131.0052 C   0  0  0  0  0  0  0  0  0  0  0  0
  204.4921  133.8231  130.5397 C   0  0  0  0  0  0  0  0  0  0  0  0
  204.6817  134.0545  129.1855 N   0  0  0  0  0  0  0  0  0  0  0  0
  205.0656  133.1286  128.1897 C   0  0  0  0  0  0  0  0  0  0  0  0
  205.3046  133.4214  126.9118 N   0  0  0  0  0  0  0  0  0  0  0  0
  205.6627  132.4867  126.0353 C   0  0  0  0  0  0  0  0  0  0  0  0
  205.9762  132.8951  124.3382 Cl  0  0  0  0  0  0  0  0  0  0  0  0
  205.8032  131.2007  126.3874 N   0  0  0  0  0  0  0  0  0  0  0  0
  205.5649  130.8620  127.6971 C   0  0  0  0  0  0  0  0  0  0  0  0
  205.7107  129.5061  128.0810 N   0  0  0  0  0  0  0  0  0  0  0  0
  206.1641  128.4300  127.2997 C   0  0  0  0  0  0  0  0  0  0  0  0
  206.6851  128.5777  126.0477 C   0  0  0  0  0  0  0  0  0  0  0  0
  207.1281  127.4822  125.2966 C   0  0  0  0  0  0  0  0  0  0  0  0
  207.0320  126.2302  125.8424 C   0  0  0  0  0  0  0  0  0  0  0  0
  206.5141  126.0589  127.0932 C   0  0  0  0  0  0  0  0  0  0  0  0
  206.0802  127.1406  127.8265 C   0  0  0  0  0  0  0  0  0  0  0  0
  205.4177  126.9442  129.4184 S   0  0  0  0  0  6  0  0  0  0  0  0
  204.5950  125.4733  129.4779 O   0  0  0  0  0  0  0  0  0  0  0  0
  204.4801  128.0737  129.7648 O   0  0  0  0  0  0  0  0  0  0  0  0
  206.4981  126.9014  130.4668 O   0  0  0  0  0  0  0  0  0  0  0  0
  205.2112  131.8190  128.5365 N   0  0  0  0  0  0  0  0  0  0  0  0
  204.8474  134.7957  131.4995 C   0  0  0  0  0  0  0  0  0  0  0  0
  204.6786  134.6079  132.8464 C   0  0  0  0  0  0  0  0  0  0  0  0
  205.5269  136.2853  130.8898 S   0  0  0  0  0  6  0  0  0  0  0  0
  205.3013  137.4975  132.0228 O   0  0  0  0  0  0  0  0  0  0  0  0
  204.8154  136.6613  129.5961 O   0  0  0  0  0  0  0  0  0  0  0  0
  207.0155  136.1499  130.6147 O   0  0  0  0  0  0  0  0  0  0  0  0
  203.4674  134.1834  136.8204 C   0  0  0  0  0  0  0  0  0  0  0  0
  203.8421  134.9897  137.9072 C   0  0  0  0  0  0  0  0  0  0  0  0
  202.9711  135.2272  139.0520 C   0  0  0  0  0  0  0  0  0  0  0  0
  203.3119  135.9519  140.0210 O   0  0  0  0  0  0  0  0  0  0  0  0
  201.6491  134.6172  139.1084 C   0  0  0  0  0  0  0  0  0  0  0  0
  200.8062  134.8231  140.1740 C   0  0  0  0  0  0  0  0  0  0  0  0
  199.5458  134.2169  140.1859 C   0  0  0  0  0  0  0  0  0  0  0  0
  199.1738  133.4212  139.1222 C   0  0  0  0  0  0  0  0  0  0  0  0
  200.0320  133.2170  138.0464 C   0  0  0  0  0  0  0  0  0  0  0  0
  201.2706  133.8216  138.0502 C   0  0  0  0  0  0  0  0  0  0  0  0
  202.1551  133.5882  136.8999 C   0  0  0  0  0  0  0  0  0  0  0  0
  201.7458  132.8544  135.9860 O   0  0  0  0  0  0  0  0  0  0  0  0
  207.5223  136.1322  136.9562 S   0  0  0  0  0  6  0  0  0  0  0  0
  208.4172  135.6015  138.2639 O   0  0  0  0  0  0  0  0  0  0  0  0
  208.2642  135.8657  135.6579 O   0  0  0  0  0  0  0  0  0  0  0  0
  207.3926  137.6246  137.0750 O   0  0  0  0  0  0  0  0  0  0  0  0
  1  2  1  0
  2  3  2  0
  3  4  1  0
  4  5  2  0
  5  6  1  0
  6  7  1  0
  7  8  2  0
  8  9  1  0
  9 10  2  0
 10 11  1  0
 11 12  1  0
 12 13  2  0
 13 14  1  0
 14 15  1  0
 14 16  2  0
 16 17  1  0
 17 18  1  0
 18 19  1  0
 19 20  2  0
 20 21  1  0
 21 22  2  0
 22 23  1  0
 23 24  2  0
 24 25  1  0
 25 26  1  0
 25 27  2  0
 25 28  2  0
 17 29  2  0
 10 30  1  0
 30 31  2  0
 30 32  1  0
 32 33  1  0
 32 34  2  0
 32 35  2  0
  5 36  1  0
 36 37  2  0
 37 38  1  0
 38 39  2  0
 38 40  1  0
 40 41  2  0
 41 42  1  0
 42 43  2  0
 43 44  1  0
 44 45  2  0
 45 46  1  0
 46 47  2  0
  3 48  1  0
 48 49  1  0
 48 50  2  0
 48 51  2  0
 37  2  1  0
 45 40  1  0
 31  7  1  0
 46 36  1  0
 29 12  1  0
 24 19  1  0
M  END
$$$$
