
     RDKit          3D

 51 56  0  0  0  0  0  0  0  0999 V2000
  124.3820  133.2016  131.0357 N   0  0  0  0  0  0  0  0  0  0  0  0
  125.5450  134.0288  131.0851 C   0  0  0  0  0  0  0  0  0  0  0  0
  125.4535  135.3422  131.4807 C   0  0  0  0  0  0  0  0  0  0  0  0
  126.5885  136.1170  131.5179 C   0  0  0  0  0  0  0  0  0  0  0  0
  127.8477  135.6141  131.1639 C   0  0  0  0  0  0  0  0  0  0  0  0
  128.9945  136.4299  131.2191 N   0  0  0  0  0  0  0  0  0  0  0  0
  129.1411  137.6643  131.8641 C   0  0  0  0  0  0  0  0  0  0  0  0
  130.3902  138.2058  132.0141 C   0  0  0  0  0  0  0  0  0  0  0  0
  130.6448  139.4185  132.6632 C   0  0  0  0  0  0  0  0  0  0  0  0
  129.5833  140.1199  133.1877 C   0  0  0  0  0  0  0  0  0  0  0  0
  129.7598  141.3279  133.8456 N   0  0  0  0  0  0  0  0  0  0  0  0
  130.4483  142.4745  133.3902 C   0  0  0  0  0  0  0  0  0  0  0  0
  130.3919  143.6834  133.9481 N   0  0  0  0  0  0  0  0  0  0  0  0
  131.0737  144.7138  133.4548 C   0  0  0  0  0  0  0  0  0  0  0  0
  130.9860  146.3158  134.2106 Cl  0  0  0  0  0  0  0  0  0  0  0  0
  131.8542  144.5944  132.3712 N   0  0  0  0  0  0  0  0  0  0  0  0
  131.9366  143.3624  131.7696 C   0  0  0  0  0  0  0  0  0  0  0  0
  132.7587  143.2241  130.6242 N   0  0  0  0  0  0  0  0  0  0  0  0
  133.1737  142.0381  129.9955 C   0  0  0  0  0  0  0  0  0  0  0  0
  133.6107  140.9399  130.6767 C   0  0  0  0  0  0  0  0  0  0  0  0
  134.0167  139.7734  130.0174 C   0  0  0  0  0  0  0  0  0  0  0  0
  133.9704  139.7427  128.6493 C   0  0  0  0  0  0  0  0  0  0  0  0
  133.5367  140.8295  127.9473 C   0  0  0  0  0  0  0  0  0  0  0  0
  133.1388  141.9738  128.6020 C   0  0  0  0  0  0  0  0  0  0  0  0
  132.5849  143.3670  127.7281 S   0  0  0  0  0  6  0  0  0  0  0  0
  132.3199  142.9215  126.1234 O   0  0  0  0  0  0  0  0  0  0  0  0
  133.5904  144.4894  127.7923 O   0  0  0  0  0  0  0  0  0  0  0  0
  131.2803  143.8823  128.2764 O   0  0  0  0  0  0  0  0  0  0  0  0
  131.2443  142.3646  132.2898 N   0  0  0  0  0  0  0  0  0  0  0  0
  128.2971  139.5589  133.0314 C   0  0  0  0  0  0  0  0  0  0  0  0
  128.0779  138.3679  132.3900 C   0  0  0  0  0  0  0  0  0  0  0  0
  126.9619  140.4635  133.7032 S   0  0  0  0  0  6  0  0  0  0  0  0
  127.0317  142.0417  133.1481 O   0  0  0  0  0  0  0  0  0  0  0  0
  127.0725  140.4549  135.2227 O   0  0  0  0  0  0  0  0  0  0  0  0
  125.6231  139.8669  133.3009 O   0  0  0  0  0  0  0  0  0  0  0  0
  127.9070  134.3044  130.7774 C   0  0  0  0  0  0  0  0  0  0  0  0
  126.7531  133.5052  130.7356 C   0  0  0  0  0  0  0  0  0  0  0  0
  126.7790  132.0999  130.3482 C   0  0  0  0  0  0  0  0  0  0  0  0
  125.7420  131.3904  130.3109 O   0  0  0  0  0  0  0  0  0  0  0  0
  128.0371  131.4611  129.9845 C   0  0  0  0  0  0  0  0  0  0  0  0
  128.0926  130.1387  129.6149 C   0  0  0  0  0  0  0  0  0  0  0  0
  129.3225  129.5669  129.2741 C   0  0  0  0  0  0  0  0  0  0  0  0
  130.4598  130.3466  129.3166 C   0  0  0  0  0  0  0  0  0  0  0  0
  130.3967  131.6848  129.6916 C   0  0  0  0  0  0  0  0  0  0  0  0
  129.1767  132.2331  130.0244 C   0  0  0  0  0  0  0  0  0  0  0  0
  129.1410  133.6492  130.4157 C   0  0  0  0  0  0  0  0  0  0  0  0
  130.2107  134.2791  130.4327 O   0  0  0  0  0  0  0  0  0  0  0  0
  123.8933  135.9872  131.9247 S   0  0  0  0  0  6  0  0  0  0  0  0
  122.9261  136.2466  130.5868 O   0  0  0  0  0  0  0  0  0  0  0  0
  123.2131  135.0424  132.9003 O   0  0  0  0  0  0  0  0  0  0  0  0
  124.0399  137.3027  132.6364 O   0  0  0  0  0  0  0  0  0  0  0  0
  1  2  1  0
  2  3  2  0
  3  4  1  0
  4  5  2  0
  5  6  1  0
  6  7  1  0
  7  8  2  0
  8  9  1  0
  9 10  2  0
 10 11  1  0
 11 12  1  0
 12 13  2  0
 13 14  1  0
 14 15  1  0
 14 16  2  0
 16 17  1  0
 17 18  1  0
 18 19  1  0
 19 20  2  0
 20 21  1  0
 21 22  2  0
 22 23  1  0
 23 24  2  0
 24 25  1  0
 25 26  1  0
 25 27  2  0
 25 28  2  0
 17 29  2  0
 10 30  1  0
 30 31  2  0
 30 32  1  0
 32 33  1  0
 32 34  2  0
 32 35  2  0
  5 36  1  0
 36 37  2  0
 37 38  1  0
 38 39  2  0
 38 40  1  0
 40 41  2  0
 41 42  1  0
 42 43  2  0
 43 44  1  0
 44 45  2  0
 45 46  1  0
 46 47  2  0
  3 48  1  0
 48 49  1  0
 48 50  2  0
 48 51  2  0
 37  2  1  0
 45 40  1  0
 31  7  1  0
 46 36  1  0
 29 12  1  0
 24 19  1  0
M  END
$$$$
