
     RDKit          3D

 51 56  0  0  0  0  0  0  0  0999 V2000
  120.5857  169.8649  139.7016 N   0  0  0  0  0  0  0  0  0  0  0  0
  120.1326  168.6264  140.2492 C   0  0  0  0  0  0  0  0  0  0  0  0
  120.5373  168.2242  141.4999 C   0  0  0  0  0  0  0  0  0  0  0  0
  120.0873  167.0265  142.0028 C   0  0  0  0  0  0  0  0  0  0  0  0
  119.2234  166.1913  141.2816 C   0  0  0  0  0  0  0  0  0  0  0  0
  118.7728  164.9729  141.8259 N   0  0  0  0  0  0  0  0  0  0  0  0
  119.1630  164.3725  143.0294 C   0  0  0  0  0  0  0  0  0  0  0  0
  118.2985  163.5309  143.6777 C   0  0  0  0  0  0  0  0  0  0  0  0
  118.5830  162.9022  144.8946 C   0  0  0  0  0  0  0  0  0  0  0  0
  119.8030  163.1360  145.4867 C   0  0  0  0  0  0  0  0  0  0  0  0
  120.1535  162.5489  146.6933 N   0  0  0  0  0  0  0  0  0  0  0  0
  119.2968  162.0623  147.7059 C   0  0  0  0  0  0  0  0  0  0  0  0
  119.6712  161.3129  148.7422 N   0  0  0  0  0  0  0  0  0  0  0  0
  118.7979  160.8947  149.6546 C   0  0  0  0  0  0  0  0  0  0  0  0
  119.3145  159.8974  151.0271 Cl  0  0  0  0  0  0  0  0  0  0  0  0
  117.4950  161.2029  149.5831 N   0  0  0  0  0  0  0  0  0  0  0  0
  117.0727  161.9742  148.5279 C   0  0  0  0  0  0  0  0  0  0  0  0
  115.6983  162.3066  148.4422 N   0  0  0  0  0  0  0  0  0  0  0  0
  115.0471  163.0408  147.4367 C   0  0  0  0  0  0  0  0  0  0  0  0
  115.7010  163.6347  146.3972 C   0  0  0  0  0  0  0  0  0  0  0  0
  115.0198  164.3593  145.4116 C   0  0  0  0  0  0  0  0  0  0  0  0
  113.6581  164.4698  145.5016 C   0  0  0  0  0  0  0  0  0  0  0  0
  112.9833  163.8839  146.5328 C   0  0  0  0  0  0  0  0  0  0  0  0
  113.6594  163.1728  147.4989 C   0  0  0  0  0  0  0  0  0  0  0  0
  112.8203  162.4209  148.8188 S   0  0  0  0  0  6  0  0  0  0  0  0
  112.5943  160.7909  148.4501 O   0  0  0  0  0  0  0  0  0  0  0  0
  111.4882  163.0823  149.0691 O   0  0  0  0  0  0  0  0  0  0  0  0
  113.6185  162.4901  150.0941 O   0  0  0  0  0  0  0  0  0  0  0  0
  117.9707  162.3694  147.6431 N   0  0  0  0  0  0  0  0  0  0  0  0
  120.6917  164.0041  144.8159 C   0  0  0  0  0  0  0  0  0  0  0  0
  120.3854  164.6061  143.6236 C   0  0  0  0  0  0  0  0  0  0  0  0
  122.2357  164.2885  145.5824 S   0  0  0  0  0  6  0  0  0  0  0  0
  121.9860  164.7088  147.1839 O   0  0  0  0  0  0  0  0  0  0  0  0
  122.9431  165.4300  144.8628 O   0  0  0  0  0  0  0  0  0  0  0  0
  123.1188  163.0524  145.5377 O   0  0  0  0  0  0  0  0  0  0  0  0
  118.8367  166.6194  140.0424 C   0  0  0  0  0  0  0  0  0  0  0  0
  119.2916  167.8408  139.5201 C   0  0  0  0  0  0  0  0  0  0  0  0
  118.8861  168.3406  138.2117 C   0  0  0  0  0  0  0  0  0  0  0  0
  119.2986  169.4342  137.7490 O   0  0  0  0  0  0  0  0  0  0  0  0
  117.9691  167.5693  137.3826 C   0  0  0  0  0  0  0  0  0  0  0  0
  117.5695  168.0145  136.1454 C   0  0  0  0  0  0  0  0  0  0  0  0
  116.6874  167.2411  135.3840 C   0  0  0  0  0  0  0  0  0  0  0  0
  116.2349  166.0418  135.8937 C   0  0  0  0  0  0  0  0  0  0  0  0
  116.6435  165.5969  137.1470 C   0  0  0  0  0  0  0  0  0  0  0  0
  117.5131  166.3709  137.8847 C   0  0  0  0  0  0  0  0  0  0  0  0
  117.9277  165.8748  139.2045 C   0  0  0  0  0  0  0  0  0  0  0  0
  117.4702  164.7876  139.5915 O   0  0  0  0  0  0  0  0  0  0  0  0
  121.6140  169.2505  142.4135 S   0  0  0  0  0  6  0  0  0  0  0  0
  121.2932  170.8703  142.1566 O   0  0  0  0  0  0  0  0  0  0  0  0
  121.5052  168.9122  143.8903 O   0  0  0  0  0  0  0  0  0  0  0  0
  123.0450  169.0075  142.0243 O   0  0  0  0  0  0  0  0  0  0  0  0
  1  2  1  0
  2  3  2  0
  3  4  1  0
  4  5  2  0
  5  6  1  0
  6  7  1  0
  7  8  2  0
  8  9  1  0
  9 10  2  0
 10 11  1  0
 11 12  1  0
 12 13  2  0
 13 14  1  0
 14 15  1  0
 14 16  2  0
 16 17  1  0
 17 18  1  0
 18 19  1  0
 19 20  2  0
 20 21  1  0
 21 22  2  0
 22 23  1  0
 23 24  2  0
 24 25  1  0
 25 26  1  0
 25 27  2  0
 25 28  2  0
 17 29  2  0
 10 30  1  0
 30 31  2  0
 30 32  1  0
 32 33  1  0
 32 34  2  0
 32 35  2  0
  5 36  1  0
 36 37  2  0
 37 38  1  0
 38 39  2  0
 38 40  1  0
 40 41  2  0
 41 42  1  0
 42 43  2  0
 43 44  1  0
 44 45  2  0
 45 46  1  0
 46 47  2  0
  3 48  1  0
 48 49  1  0
 48 50  2  0
 48 51  2  0
 37  2  1  0
 45 40  1  0
 31  7  1  0
 46 36  1  0
 29 12  1  0
 24 19  1  0
M  END
$$$$
