
     RDKit          3D

 51 56  0  0  0  0  0  0  0  0999 V2000
  189.5984  157.4711  115.0053 N   0  0  0  0  0  0  0  0  0  0  0  0
  189.6018  158.5999  115.8799 C   0  0  0  0  0  0  0  0  0  0  0  0
  190.7652  159.0143  116.4835 C   0  0  0  0  0  0  0  0  0  0  0  0
  190.7402  160.1033  117.3223 C   0  0  0  0  0  0  0  0  0  0  0  0
  189.5620  160.8138  117.5886 C   0  0  0  0  0  0  0  0  0  0  0  0
  189.5685  161.9305  118.4467 N   0  0  0  0  0  0  0  0  0  0  0  0
  190.6770  162.5796  119.0045 C   0  0  0  0  0  0  0  0  0  0  0  0
  191.8280  161.8747  119.2372 C   0  0  0  0  0  0  0  0  0  0  0  0
  192.9794  162.4236  119.8118 C   0  0  0  0  0  0  0  0  0  0  0  0
  192.9672  163.7523  120.1694 C   0  0  0  0  0  0  0  0  0  0  0  0
  194.0708  164.3638  120.7451 N   0  0  0  0  0  0  0  0  0  0  0  0
  195.0390  163.7877  121.5976 C   0  0  0  0  0  0  0  0  0  0  0  0
  196.1541  164.3848  122.0170 N   0  0  0  0  0  0  0  0  0  0  0  0
  197.0166  163.7697  122.8217 C   0  0  0  0  0  0  0  0  0  0  0  0
  198.4959  164.5801  123.3695 Cl  0  0  0  0  0  0  0  0  0  0  0  0
  196.8131  162.5173  123.2552 N   0  0  0  0  0  0  0  0  0  0  0  0
  195.6737  161.8705  122.8430 C   0  0  0  0  0  0  0  0  0  0  0  0
  195.4477  160.5470  123.2950 N   0  0  0  0  0  0  0  0  0  0  0  0
  194.5261  159.6093  122.7997 C   0  0  0  0  0  0  0  0  0  0  0  0
  193.8109  159.7927  121.6526 C   0  0  0  0  0  0  0  0  0  0  0  0
  192.9002  158.8363  121.1876 C   0  0  0  0  0  0  0  0  0  0  0  0
  192.7289  157.6867  121.9112 C   0  0  0  0  0  0  0  0  0  0  0  0
  193.4336  157.4820  123.0616 C   0  0  0  0  0  0  0  0  0  0  0  0
  194.3277  158.4268  123.5135 C   0  0  0  0  0  0  0  0  0  0  0  0
  195.2332  158.1865  124.9743 S   0  0  0  0  0  6  0  0  0  0  0  0
  195.1680  159.6052  125.8837 O   0  0  0  0  0  0  0  0  0  0  0  0
  196.6682  157.8301  124.6770 O   0  0  0  0  0  0  0  0  0  0  0  0
  194.6466  157.0828  125.8144 O   0  0  0  0  0  0  0  0  0  0  0  0
  194.8423  162.5155  122.0441 N   0  0  0  0  0  0  0  0  0  0  0  0
  191.7791  164.4760  119.9281 C   0  0  0  0  0  0  0  0  0  0  0  0
  190.6658  163.9112  119.3632 C   0  0  0  0  0  0  0  0  0  0  0  0
  191.7824  166.1615  120.3882 S   0  0  0  0  0  6  0  0  0  0  0  0
  193.1239  166.9109  119.7231 O   0  0  0  0  0  0  0  0  0  0  0  0
  191.8472  166.2602  121.9072 O   0  0  0  0  0  0  0  0  0  0  0  0
  190.5345  166.8776  119.8984 O   0  0  0  0  0  0  0  0  0  0  0  0
  188.4222  160.3793  116.9718 C   0  0  0  0  0  0  0  0  0  0  0  0
  188.4377  159.2677  116.1140 C   0  0  0  0  0  0  0  0  0  0  0  0
  187.2474  158.7866  115.4227 C   0  0  0  0  0  0  0  0  0  0  0  0
  187.2676  157.7895  114.6575 O   0  0  0  0  0  0  0  0  0  0  0  0
  185.9695  159.4632  115.6025 C   0  0  0  0  0  0  0  0  0  0  0  0
  184.8311  159.0326  114.9646 C   0  0  0  0  0  0  0  0  0  0  0  0
  183.6259  159.7130  115.1664 C   0  0  0  0  0  0  0  0  0  0  0  0
  183.6057  160.8077  116.0057 C   0  0  0  0  0  0  0  0  0  0  0  0
  184.7620  161.2384  116.6484 C   0  0  0  0  0  0  0  0  0  0  0  0
  185.9415  160.5567  116.4389 C   0  0  0  0  0  0  0  0  0  0  0  0
  187.1462  161.0343  117.1319 C   0  0  0  0  0  0  0  0  0  0  0  0
  187.0433  162.0301  117.8661 O   0  0  0  0  0  0  0  0  0  0  0  0
  192.2432  158.1416  116.1651 S   0  0  0  0  0  6  0  0  0  0  0  0
  192.9649  157.6092  117.5752 O   0  0  0  0  0  0  0  0  0  0  0  0
  191.9523  156.9726  115.2397 O   0  0  0  0  0  0  0  0  0  0  0  0
  193.2375  159.0136  115.4515 O   0  0  0  0  0  0  0  0  0  0  0  0
  1  2  1  0
  2  3  2  0
  3  4  1  0
  4  5  2  0
  5  6  1  0
  6  7  1  0
  7  8  2  0
  8  9  1  0
  9 10  2  0
 10 11  1  0
 11 12  1  0
 12 13  2  0
 13 14  1  0
 14 15  1  0
 14 16  2  0
 16 17  1  0
 17 18  1  0
 18 19  1  0
 19 20  2  0
 20 21  1  0
 21 22  2  0
 22 23  1  0
 23 24  2  0
 24 25  1  0
 25 26  1  0
 25 27  2  0
 25 28  2  0
 17 29  2  0
 10 30  1  0
 30 31  2  0
 30 32  1  0
 32 33  1  0
 32 34  2  0
 32 35  2  0
  5 36  1  0
 36 37  2  0
 37 38  1  0
 38 39  2  0
 38 40  1  0
 40 41  2  0
 41 42  1  0
 42 43  2  0
 43 44  1  0
 44 45  2  0
 45 46  1  0
 46 47  2  0
  3 48  1  0
 48 49  1  0
 48 50  2  0
 48 51  2  0
 37  2  1  0
 45 40  1  0
 31  7  1  0
 46 36  1  0
 29 12  1  0
 24 19  1  0
M  END
$$$$
