
     RDKit          3D

 51 56  0  0  0  0  0  0  0  0999 V2000
  186.4318  156.3928  123.5733 N   0  0  0  0  0  0  0  0  0  0  0  0
  187.6987  156.7886  123.0465 C   0  0  0  0  0  0  0  0  0  0  0  0
  187.7819  157.4421  121.8400 C   0  0  0  0  0  0  0  0  0  0  0  0
  189.0143  157.8107  121.3550 C   0  0  0  0  0  0  0  0  0  0  0  0
  190.2010  157.5425  122.0505 C   0  0  0  0  0  0  0  0  0  0  0  0
  191.4491  157.9390  121.5321 N   0  0  0  0  0  0  0  0  0  0  0  0
  191.7041  158.6408  120.3473 C   0  0  0  0  0  0  0  0  0  0  0  0
  192.9979  158.8484  119.9485 C   0  0  0  0  0  0  0  0  0  0  0  0
  193.3579  159.5564  118.7969 C   0  0  0  0  0  0  0  0  0  0  0  0
  192.3599  160.0813  118.0081 C   0  0  0  0  0  0  0  0  0  0  0  0
  192.6414  160.7957  116.8532 N   0  0  0  0  0  0  0  0  0  0  0  0
  193.2658  162.0581  116.7412 C   0  0  0  0  0  0  0  0  0  0  0  0
  192.8908  163.0364  115.9177 N   0  0  0  0  0  0  0  0  0  0  0  0
  193.5355  164.1994  115.8739 C   0  0  0  0  0  0  0  0  0  0  0  0
  193.0222  165.4899  114.7711 Cl  0  0  0  0  0  0  0  0  0  0  0  0
  194.5963  164.4521  116.6540 N   0  0  0  0  0  0  0  0  0  0  0  0
  195.0114  163.4662  117.5156 C   0  0  0  0  0  0  0  0  0  0  0  0
  196.1309  163.7221  118.3452 N   0  0  0  0  0  0  0  0  0  0  0  0
  196.7159  162.8689  119.2959 C   0  0  0  0  0  0  0  0  0  0  0  0
  197.0723  161.5794  119.0295 C   0  0  0  0  0  0  0  0  0  0  0  0
  197.6539  160.7566  120.0016 C   0  0  0  0  0  0  0  0  0  0  0  0
  197.8678  161.2693  121.2530 C   0  0  0  0  0  0  0  0  0  0  0  0
  197.5192  162.5565  121.5419 C   0  0  0  0  0  0  0  0  0  0  0  0
  196.9474  163.3604  120.5812 C   0  0  0  0  0  0  0  0  0  0  0  0
  196.4960  164.9998  120.9282 S   0  0  0  0  0  6  0  0  0  0  0  0
  197.2480  165.4695  122.3627 O   0  0  0  0  0  0  0  0  0  0  0  0
  195.0002  165.1399  121.0604 O   0  0  0  0  0  0  0  0  0  0  0  0
  196.9555  165.9418  119.8466 O   0  0  0  0  0  0  0  0  0  0  0  0
  194.3448  162.3257  117.5291 N   0  0  0  0  0  0  0  0  0  0  0  0
  191.0274  159.8655  118.4221 C   0  0  0  0  0  0  0  0  0  0  0  0
  190.7047  159.1672  119.5562 C   0  0  0  0  0  0  0  0  0  0  0  0
  189.7740  160.5388  117.4082 S   0  0  0  0  0  6  0  0  0  0  0  0
  189.2247  159.3586  116.3551 O   0  0  0  0  0  0  0  0  0  0  0  0
  190.3531  161.7006  116.6105 O   0  0  0  0  0  0  0  0  0  0  0  0
  188.5982  161.0401  118.2304 O   0  0  0  0  0  0  0  0  0  0  0  0
  190.0858  156.8938  123.2481 C   0  0  0  0  0  0  0  0  0  0  0  0
  188.8315  156.5128  123.7513 C   0  0  0  0  0  0  0  0  0  0  0  0
  188.6663  155.8377  125.0330 C   0  0  0  0  0  0  0  0  0  0  0  0
  187.5405  155.4974  125.4770 O   0  0  0  0  0  0  0  0  0  0  0  0
  189.8284  155.5304  125.8567 C   0  0  0  0  0  0  0  0  0  0  0  0
  189.7038  154.8948  127.0687 C   0  0  0  0  0  0  0  0  0  0  0  0
  190.8470  154.6201  127.8261 C   0  0  0  0  0  0  0  0  0  0  0  0
  192.0816  154.9951  127.3379 C   0  0  0  0  0  0  0  0  0  0  0  0
  192.2006  155.6383  126.1100 C   0  0  0  0  0  0  0  0  0  0  0  0
  191.0642  155.9016  125.3759 C   0  0  0  0  0  0  0  0  0  0  0  0
  191.2212  156.5814  124.0825 C   0  0  0  0  0  0  0  0  0  0  0  0
  192.3673  156.8896  123.7183 O   0  0  0  0  0  0  0  0  0  0  0  0
  186.3147  157.7845  120.9582 S   0  0  0  0  0  6  0  0  0  0  0  0
  185.6441  159.2457  121.4140 O   0  0  0  0  0  0  0  0  0  0  0  0
  186.6047  157.7719  119.4672 O   0  0  0  0  0  0  0  0  0  0  0  0
  185.2824  156.7198  121.2012 O   0  0  0  0  0  0  0  0  0  0  0  0
  1  2  1  0
  2  3  2  0
  3  4  1  0
  4  5  2  0
  5  6  1  0
  6  7  1  0
  7  8  2  0
  8  9  1  0
  9 10  2  0
 10 11  1  0
 11 12  1  0
 12 13  2  0
 13 14  1  0
 14 15  1  0
 14 16  2  0
 16 17  1  0
 17 18  1  0
 18 19  1  0
 19 20  2  0
 20 21  1  0
 21 22  2  0
 22 23  1  0
 23 24  2  0
 24 25  1  0
 25 26  1  0
 25 27  2  0
 25 28  2  0
 17 29  2  0
 10 30  1  0
 30 31  2  0
 30 32  1  0
 32 33  1  0
 32 34  2  0
 32 35  2  0
  5 36  1  0
 36 37  2  0
 37 38  1  0
 38 39  2  0
 38 40  1  0
 40 41  2  0
 41 42  1  0
 42 43  2  0
 43 44  1  0
 44 45  2  0
 45 46  1  0
 46 47  2  0
  3 48  1  0
 48 49  1  0
 48 50  2  0
 48 51  2  0
 37  2  1  0
 45 40  1  0
 31  7  1  0
 46 36  1  0
 29 12  1  0
 24 19  1  0
M  END
$$$$
