
     RDKit          3D

 51 56  0  0  0  0  0  0  0  0999 V2000
  130.2820  142.8216  125.2736 N   0  0  0  0  0  0  0  0  0  0  0  0
  131.0619  142.0035  126.1463 C   0  0  0  0  0  0  0  0  0  0  0  0
  131.6100  142.5273  127.2929 C   0  0  0  0  0  0  0  0  0  0  0  0
  132.3580  141.7181  128.1149 C   0  0  0  0  0  0  0  0  0  0  0  0
  132.5854  140.3659  127.8254 C   0  0  0  0  0  0  0  0  0  0  0  0
  133.3499  139.5592  128.6906 N   0  0  0  0  0  0  0  0  0  0  0  0
  133.3504  139.5607  130.0910 C   0  0  0  0  0  0  0  0  0  0  0  0
  134.2624  138.7959  130.7685 C   0  0  0  0  0  0  0  0  0  0  0  0
  134.3295  138.7097  132.1632 C   0  0  0  0  0  0  0  0  0  0  0  0
  133.4290  139.4330  132.9113 C   0  0  0  0  0  0  0  0  0  0  0  0
  133.4346  139.3954  134.2977 N   0  0  0  0  0  0  0  0  0  0  0  0
  132.9300  138.3820  135.1429 C   0  0  0  0  0  0  0  0  0  0  0  0
  132.9439  138.4076  136.4752 N   0  0  0  0  0  0  0  0  0  0  0  0
  132.4464  137.4084  137.1991 C   0  0  0  0  0  0  0  0  0  0  0  0
  132.4740  137.4597  138.9717 Cl  0  0  0  0  0  0  0  0  0  0  0  0
  131.9042  136.3219  136.6305 N   0  0  0  0  0  0  0  0  0  0  0  0
  131.8727  136.2611  135.2587 C   0  0  0  0  0  0  0  0  0  0  0  0
  131.3018  135.1181  134.6466 N   0  0  0  0  0  0  0  0  0  0  0  0
  131.0573  134.8999  133.2803 C   0  0  0  0  0  0  0  0  0  0  0  0
  130.6910  135.8891  132.4153 C   0  0  0  0  0  0  0  0  0  0  0  0
  130.4553  135.6359  131.0586 C   0  0  0  0  0  0  0  0  0  0  0  0
  130.5991  134.3556  130.5952 C   0  0  0  0  0  0  0  0  0  0  0  0
  130.9646  133.3503  131.4425 C   0  0  0  0  0  0  0  0  0  0  0  0
  131.1948  133.6062  132.7758 C   0  0  0  0  0  0  0  0  0  0  0  0
  131.6596  132.3420  133.8701 S   0  0  0  0  0  6  0  0  0  0  0  0
  131.1883  130.8633  133.2104 O   0  0  0  0  0  0  0  0  0  0  0  0
  131.0232  132.5285  135.2247 O   0  0  0  0  0  0  0  0  0  0  0  0
  133.1527  132.2968  134.0622 O   0  0  0  0  0  0  0  0  0  0  0  0
  132.3769  137.2735  134.5757 N   0  0  0  0  0  0  0  0  0  0  0  0
  132.4902  140.2203  132.2098 C   0  0  0  0  0  0  0  0  0  0  0  0
  132.4484  140.2852  130.8416 C   0  0  0  0  0  0  0  0  0  0  0  0
  131.3555  141.1318  133.1761 S   0  0  0  0  0  6  0  0  0  0  0  0
  132.1926  141.9881  134.3465 O   0  0  0  0  0  0  0  0  0  0  0  0
  130.3892  140.1649  133.8490 O   0  0  0  0  0  0  0  0  0  0  0  0
  130.5631  142.1149  132.3301 O   0  0  0  0  0  0  0  0  0  0  0  0
  132.0254  139.8735  126.6799 C   0  0  0  0  0  0  0  0  0  0  0  0
  131.2606  140.6925  125.8337 C   0  0  0  0  0  0  0  0  0  0  0  0
  130.6310  140.1994  124.6145 C   0  0  0  0  0  0  0  0  0  0  0  0
  129.9490  140.9384  123.8602 O   0  0  0  0  0  0  0  0  0  0  0  0
  130.7767  138.8028  124.2255 C   0  0  0  0  0  0  0  0  0  0  0  0
  130.1953  138.3096  123.0821 C   0  0  0  0  0  0  0  0  0  0  0  0
  130.3615  136.9618  122.7478 C   0  0  0  0  0  0  0  0  0  0  0  0
  131.1093  136.1519  123.5773 C   0  0  0  0  0  0  0  0  0  0  0  0
  131.6953  136.6577  124.7334 C   0  0  0  0  0  0  0  0  0  0  0  0
  131.5219  137.9882  125.0485 C   0  0  0  0  0  0  0  0  0  0  0  0
  132.1534  138.4940  126.2753 C   0  0  0  0  0  0  0  0  0  0  0  0
  132.8059  137.6978  126.9692 O   0  0  0  0  0  0  0  0  0  0  0  0
  131.3386  144.2100  127.6705 S   0  0  0  0  0  6  0  0  0  0  0  0
  130.1910  144.8933  126.6661 O   0  0  0  0  0  0  0  0  0  0  0  0
  130.9219  144.3422  129.1252 O   0  0  0  0  0  0  0  0  0  0  0  0
  132.6042  145.0052  127.5151 O   0  0  0  0  0  0  0  0  0  0  0  0
  1  2  1  0
  2  3  2  0
  3  4  1  0
  4  5  2  0
  5  6  1  0
  6  7  1  0
  7  8  2  0
  8  9  1  0
  9 10  2  0
 10 11  1  0
 11 12  1  0
 12 13  2  0
 13 14  1  0
 14 15  1  0
 14 16  2  0
 16 17  1  0
 17 18  1  0
 18 19  1  0
 19 20  2  0
 20 21  1  0
 21 22  2  0
 22 23  1  0
 23 24  2  0
 24 25  1  0
 25 26  1  0
 25 27  2  0
 25 28  2  0
 17 29  2  0
 10 30  1  0
 30 31  2  0
 30 32  1  0
 32 33  1  0
 32 34  2  0
 32 35  2  0
  5 36  1  0
 36 37  2  0
 37 38  1  0
 38 39  2  0
 38 40  1  0
 40 41  2  0
 41 42  1  0
 42 43  2  0
 43 44  1  0
 44 45  2  0
 45 46  1  0
 46 47  2  0
  3 48  1  0
 48 49  1  0
 48 50  2  0
 48 51  2  0
 37  2  1  0
 45 40  1  0
 31  7  1  0
 46 36  1  0
 29 12  1  0
 24 19  1  0
M  END
$$$$
