
     RDKit          3D

 51 56  0  0  0  0  0  0  0  0999 V2000
  182.7850  154.1655  130.4582 N   0  0  0  0  0  0  0  0  0  0  0  0
  182.5703  155.0118  131.5882 C   0  0  0  0  0  0  0  0  0  0  0  0
  183.6101  155.7239  132.1371 C   0  0  0  0  0  0  0  0  0  0  0  0
  183.3762  156.5302  133.2257 C   0  0  0  0  0  0  0  0  0  0  0  0
  182.1054  156.6546  133.8033 C   0  0  0  0  0  0  0  0  0  0  0  0
  181.8944  157.4945  134.9141 N   0  0  0  0  0  0  0  0  0  0  0  0
  182.8287  157.8992  135.8756 C   0  0  0  0  0  0  0  0  0  0  0  0
  182.9242  159.2236  136.2114 C   0  0  0  0  0  0  0  0  0  0  0  0
  183.8392  159.7317  137.1397 C   0  0  0  0  0  0  0  0  0  0  0  0
  184.7015  158.8571  137.7602 C   0  0  0  0  0  0  0  0  0  0  0  0
  185.6359  159.2888  138.6897 N   0  0  0  0  0  0  0  0  0  0  0  0
  186.6438  160.2646  138.5219 C   0  0  0  0  0  0  0  0  0  0  0  0
  187.5090  160.6523  139.4583 N   0  0  0  0  0  0  0  0  0  0  0  0
  188.4306  161.5811  139.2175 C   0  0  0  0  0  0  0  0  0  0  0  0
  189.5736  162.0849  140.4766 Cl  0  0  0  0  0  0  0  0  0  0  0  0
  188.5407  162.1779  138.0220 N   0  0  0  0  0  0  0  0  0  0  0  0
  187.6653  161.8031  137.0322 C   0  0  0  0  0  0  0  0  0  0  0  0
  187.7724  162.4265  135.7646 N   0  0  0  0  0  0  0  0  0  0  0  0
  186.8591  162.3803  134.6980 C   0  0  0  0  0  0  0  0  0  0  0  0
  185.6465  163.0048  134.7198 C   0  0  0  0  0  0  0  0  0  0  0  0
  184.7602  162.9379  133.6379 C   0  0  0  0  0  0  0  0  0  0  0  0
  185.1294  162.2230  132.5302 C   0  0  0  0  0  0  0  0  0  0  0  0
  186.3376  161.5903  132.4863 C   0  0  0  0  0  0  0  0  0  0  0  0
  187.2046  161.6600  133.5539 C   0  0  0  0  0  0  0  0  0  0  0  0
  188.7452  160.8620  133.5188 S   0  0  0  0  0  6  0  0  0  0  0  0
  188.5180  159.2418  133.9279 O   0  0  0  0  0  0  0  0  0  0  0  0
  189.7169  161.5043  134.4769 O   0  0  0  0  0  0  0  0  0  0  0  0
  189.3577  160.9000  132.1434 O   0  0  0  0  0  0  0  0  0  0  0  0
  186.7647  160.8775  137.3110 N   0  0  0  0  0  0  0  0  0  0  0  0
  184.6004  157.4926  137.4118 C   0  0  0  0  0  0  0  0  0  0  0  0
  183.6933  157.0235  136.4980 C   0  0  0  0  0  0  0  0  0  0  0  0
  185.7029  156.3973  138.2099 S   0  0  0  0  0  6  0  0  0  0  0  0
  185.6080  154.8928  137.4811 O   0  0  0  0  0  0  0  0  0  0  0  0
  185.3065  156.2766  139.6761 O   0  0  0  0  0  0  0  0  0  0  0  0
  187.1390  156.8876  138.1241 O   0  0  0  0  0  0  0  0  0  0  0  0
  181.0915  155.9362  133.2339 C   0  0  0  0  0  0  0  0  0  0  0  0
  181.3208  155.1096  132.1223 C   0  0  0  0  0  0  0  0  0  0  0  0
  180.2620  154.3439  131.4753 C   0  0  0  0  0  0  0  0  0  0  0  0
  180.4744  153.6040  130.4815 O   0  0  0  0  0  0  0  0  0  0  0  0
  178.8944  154.4155  131.9730 C   0  0  0  0  0  0  0  0  0  0  0  0
  177.8760  153.7052  131.3842 C   0  0  0  0  0  0  0  0  0  0  0  0
  176.5780  153.8045  131.8954 C   0  0  0  0  0  0  0  0  0  0  0  0
  176.3465  154.6178  132.9854 C   0  0  0  0  0  0  0  0  0  0  0  0
  177.3822  155.3342  133.5769 C   0  0  0  0  0  0  0  0  0  0  0  0
  178.6556  155.2252  133.0609 C   0  0  0  0  0  0  0  0  0  0  0  0
  179.7292  155.9930  133.7070 C   0  0  0  0  0  0  0  0  0  0  0  0
  179.4355  156.7053  134.6805 O   0  0  0  0  0  0  0  0  0  0  0  0
  185.2008  155.5815  131.4321 S   0  0  0  0  0  6  0  0  0  0  0  0
  185.9338  154.1370  131.8429 O   0  0  0  0  0  0  0  0  0  0  0  0
  185.1004  155.7192  129.9227 O   0  0  0  0  0  0  0  0  0  0  0  0
  186.0973  156.6917  131.9033 O   0  0  0  0  0  0  0  0  0  0  0  0
  1  2  1  0
  2  3  2  0
  3  4  1  0
  4  5  2  0
  5  6  1  0
  6  7  1  0
  7  8  2  0
  8  9  1  0
  9 10  2  0
 10 11  1  0
 11 12  1  0
 12 13  2  0
 13 14  1  0
 14 15  1  0
 14 16  2  0
 16 17  1  0
 17 18  1  0
 18 19  1  0
 19 20  2  0
 20 21  1  0
 21 22  2  0
 22 23  1  0
 23 24  2  0
 24 25  1  0
 25 26  1  0
 25 27  2  0
 25 28  2  0
 17 29  2  0
 10 30  1  0
 30 31  2  0
 30 32  1  0
 32 33  1  0
 32 34  2  0
 32 35  2  0
  5 36  1  0
 36 37  2  0
 37 38  1  0
 38 39  2  0
 38 40  1  0
 40 41  2  0
 41 42  1  0
 42 43  2  0
 43 44  1  0
 44 45  2  0
 45 46  1  0
 46 47  2  0
  3 48  1  0
 48 49  1  0
 48 50  2  0
 48 51  2  0
 37  2  1  0
 45 40  1  0
 31  7  1  0
 46 36  1  0
 29 12  1  0
 24 19  1  0
M  END
$$$$
