
     RDKit          3D

 51 56  0  0  0  0  0  0  0  0999 V2000
  190.3403  166.3817  119.5730 N   0  0  0  0  0  0  0  0  0  0  0  0
  190.4157  165.3136  120.5178 C   0  0  0  0  0  0  0  0  0  0  0  0
  191.5989  164.6454  120.7260 C   0  0  0  0  0  0  0  0  0  0  0  0
  191.6435  163.6198  121.6404 C   0  0  0  0  0  0  0  0  0  0  0  0
  190.5174  163.2253  122.3754 C   0  0  0  0  0  0  0  0  0  0  0  0
  190.5952  162.1756  123.3112 N   0  0  0  0  0  0  0  0  0  0  0  0
  190.7033  160.8028  123.0561 C   0  0  0  0  0  0  0  0  0  0  0  0
  190.6882  159.9169  124.1005 C   0  0  0  0  0  0  0  0  0  0  0  0
  190.8141  158.5313  123.9534 C   0  0  0  0  0  0  0  0  0  0  0  0
  190.9630  158.0148  122.6867 C   0  0  0  0  0  0  0  0  0  0  0  0
  191.0950  156.6523  122.4646 N   0  0  0  0  0  0  0  0  0  0  0  0
  191.0660  155.6084  123.4162 C   0  0  0  0  0  0  0  0  0  0  0  0
  191.2037  154.3108  123.1459 N   0  0  0  0  0  0  0  0  0  0  0  0
  191.1638  153.3887  124.1041 C   0  0  0  0  0  0  0  0  0  0  0  0
  191.3486  151.6660  123.7253 Cl  0  0  0  0  0  0  0  0  0  0  0  0
  190.9835  153.7121  125.3927 N   0  0  0  0  0  0  0  0  0  0  0  0
  190.8379  155.0409  125.7087 C   0  0  0  0  0  0  0  0  0  0  0  0
  190.6472  155.3947  127.0672 N   0  0  0  0  0  0  0  0  0  0  0  0
  190.3881  156.6682  127.6012 C   0  0  0  0  0  0  0  0  0  0  0  0
  189.4162  157.4988  127.1251 C   0  0  0  0  0  0  0  0  0  0  0  0
  189.1849  158.7624  127.6819 C   0  0  0  0  0  0  0  0  0  0  0  0
  189.9610  159.1681  128.7343 C   0  0  0  0  0  0  0  0  0  0  0  0
  190.9388  158.3537  129.2269 C   0  0  0  0  0  0  0  0  0  0  0  0
  191.1613  157.1120  128.6746 C   0  0  0  0  0  0  0  0  0  0  0  0
  192.4002  156.0616  129.2854 S   0  0  0  0  0  6  0  0  0  0  0  0
  193.8725  156.8820  129.2300 O   0  0  0  0  0  0  0  0  0  0  0  0
  192.4876  154.7904  128.4785 O   0  0  0  0  0  0  0  0  0  0  0  0
  192.1470  155.6823  130.7208 O   0  0  0  0  0  0  0  0  0  0  0  0
  190.8832  155.9257  124.7287 N   0  0  0  0  0  0  0  0  0  0  0  0
  190.9783  158.9308  121.6124 C   0  0  0  0  0  0  0  0  0  0  0  0
  190.8526  160.2842  121.7870 C   0  0  0  0  0  0  0  0  0  0  0  0
  191.1678  158.2567  120.0118 S   0  0  0  0  0  6  0  0  0  0  0  0
  189.8383  158.6677  119.0806 O   0  0  0  0  0  0  0  0  0  0  0  0
  191.2612  156.7399  120.1210 O   0  0  0  0  0  0  0  0  0  0  0  0
  192.4195  158.7818  119.3280 O   0  0  0  0  0  0  0  0  0  0  0  0
  189.3565  163.9101  122.1482 C   0  0  0  0  0  0  0  0  0  0  0  0
  189.3009  164.9586  121.2158 C   0  0  0  0  0  0  0  0  0  0  0  0
  188.0873  165.7252  120.9603 C   0  0  0  0  0  0  0  0  0  0  0  0
  188.0437  166.6615  120.1227 O   0  0  0  0  0  0  0  0  0  0  0  0
  186.8604  165.4218  121.6854 C   0  0  0  0  0  0  0  0  0  0  0  0
  185.7013  166.1266  121.4657 C   0  0  0  0  0  0  0  0  0  0  0  0
  184.5470  165.8009  122.1851 C   0  0  0  0  0  0  0  0  0  0  0  0
  184.5968  164.7738  123.1047 C   0  0  0  0  0  0  0  0  0  0  0  0
  185.7736  164.0642  123.3222 C   0  0  0  0  0  0  0  0  0  0  0  0
  186.9023  164.3977  122.6050 C   0  0  0  0  0  0  0  0  0  0  0  0
  188.1301  163.6300  122.8556 C   0  0  0  0  0  0  0  0  0  0  0  0
  188.0916  162.7243  123.7038 O   0  0  0  0  0  0  0  0  0  0  0  0
  193.0126  165.1217  119.8194 S   0  0  0  0  0  6  0  0  0  0  0  0
  192.8207  164.8469  118.1822 O   0  0  0  0  0  0  0  0  0  0  0  0
  193.3141  166.5869  120.0833 O   0  0  0  0  0  0  0  0  0  0  0  0
  194.2217  164.3497  120.2671 O   0  0  0  0  0  0  0  0  0  0  0  0
  1  2  1  0
  2  3  2  0
  3  4  1  0
  4  5  2  0
  5  6  1  0
  6  7  1  0
  7  8  2  0
  8  9  1  0
  9 10  2  0
 10 11  1  0
 11 12  1  0
 12 13  2  0
 13 14  1  0
 14 15  1  0
 14 16  2  0
 16 17  1  0
 17 18  1  0
 18 19  1  0
 19 20  2  0
 20 21  1  0
 21 22  2  0
 22 23  1  0
 23 24  2  0
 24 25  1  0
 25 26  1  0
 25 27  2  0
 25 28  2  0
 17 29  2  0
 10 30  1  0
 30 31  2  0
 30 32  1  0
 32 33  1  0
 32 34  2  0
 32 35  2  0
  5 36  1  0
 36 37  2  0
 37 38  1  0
 38 39  2  0
 38 40  1  0
 40 41  2  0
 41 42  1  0
 42 43  2  0
 43 44  1  0
 44 45  2  0
 45 46  1  0
 46 47  2  0
  3 48  1  0
 48 49  1  0
 48 50  2  0
 48 51  2  0
 37  2  1  0
 45 40  1  0
 31  7  1  0
 46 36  1  0
 29 12  1  0
 24 19  1  0
M  END
$$$$
