
     RDKit          3D

 51 56  0  0  0  0  0  0  0  0999 V2000
  126.1579  140.5946  130.0258 N   0  0  0  0  0  0  0  0  0  0  0  0
  126.5845  141.1806  131.2562 C   0  0  0  0  0  0  0  0  0  0  0  0
  127.0476  142.4744  131.2919 C   0  0  0  0  0  0  0  0  0  0  0  0
  127.4535  143.0138  132.4895 C   0  0  0  0  0  0  0  0  0  0  0  0
  127.4132  142.2875  133.6873 C   0  0  0  0  0  0  0  0  0  0  0  0
  127.8287  142.8693  134.9008 N   0  0  0  0  0  0  0  0  0  0  0  0
  128.6096  144.0178  135.0805 C   0  0  0  0  0  0  0  0  0  0  0  0
  128.9157  144.4368  136.3480 C   0  0  0  0  0  0  0  0  0  0  0  0
  129.6668  145.5820  136.6338 C   0  0  0  0  0  0  0  0  0  0  0  0
  130.1321  146.3424  135.5855 C   0  0  0  0  0  0  0  0  0  0  0  0
  130.8813  147.4910  135.7927 N   0  0  0  0  0  0  0  0  0  0  0  0
  130.4150  148.8016  136.0395 C   0  0  0  0  0  0  0  0  0  0  0  0
  131.1573  149.9075  135.9981 N   0  0  0  0  0  0  0  0  0  0  0  0
  130.6385  151.1076  136.2445 C   0  0  0  0  0  0  0  0  0  0  0  0
  131.6420  152.5687  136.1852 Cl  0  0  0  0  0  0  0  0  0  0  0  0
  129.3427  151.2717  136.5475 N   0  0  0  0  0  0  0  0  0  0  0  0
  128.5470  150.1533  136.5993 C   0  0  0  0  0  0  0  0  0  0  0  0
  127.1761  150.3144  136.9180 N   0  0  0  0  0  0  0  0  0  0  0  0
  126.1918  149.3183  137.0322 C   0  0  0  0  0  0  0  0  0  0  0  0
  126.0677  148.5063  138.1213 C   0  0  0  0  0  0  0  0  0  0  0  0
  125.0739  147.5233  138.2019 C   0  0  0  0  0  0  0  0  0  0  0  0
  124.2059  147.3798  137.1528 C   0  0  0  0  0  0  0  0  0  0  0  0
  124.3115  148.1810  136.0533 C   0  0  0  0  0  0  0  0  0  0  0  0
  125.2913  149.1459  135.9804 C   0  0  0  0  0  0  0  0  0  0  0  0
  125.4432  150.1744  134.5909 S   0  0  0  0  0  6  0  0  0  0  0  0
  124.2009  149.8038  133.5124 O   0  0  0  0  0  0  0  0  0  0  0  0
  126.7810  149.9928  133.9185 O   0  0  0  0  0  0  0  0  0  0  0  0
  125.3040  151.6280  134.9597 O   0  0  0  0  0  0  0  0  0  0  0  0
  129.0999  148.9799  136.3484 N   0  0  0  0  0  0  0  0  0  0  0  0
  129.8147  145.9077  134.2803 C   0  0  0  0  0  0  0  0  0  0  0  0
  129.0764  144.7805  134.0307 C   0  0  0  0  0  0  0  0  0  0  0  0
  130.4142  146.8853  132.9623 S   0  0  0  0  0  6  0  0  0  0  0  0
  132.0872  146.9228  133.0216 O   0  0  0  0  0  0  0  0  0  0  0  0
  129.8696  148.3008  133.1080 O   0  0  0  0  0  0  0  0  0  0  0  0
  129.9893  146.3279  131.6137 O   0  0  0  0  0  0  0  0  0  0  0  0
  126.9456  141.0048  133.6202 C   0  0  0  0  0  0  0  0  0  0  0  0
  126.5295  140.4450  132.4016 C   0  0  0  0  0  0  0  0  0  0  0  0
  126.0066  139.0883  132.2930 C   0  0  0  0  0  0  0  0  0  0  0  0
  125.6375  138.5924  131.1985 O   0  0  0  0  0  0  0  0  0  0  0  0
  125.8934  138.2476  133.4777 C   0  0  0  0  0  0  0  0  0  0  0  0
  125.4049  136.9651  133.4064 C   0  0  0  0  0  0  0  0  0  0  0  0
  125.3137  136.1941  134.5696 C   0  0  0  0  0  0  0  0  0  0  0  0
  125.7182  136.7403  135.7701 C   0  0  0  0  0  0  0  0  0  0  0  0
  126.2120  138.0393  135.8353 C   0  0  0  0  0  0  0  0  0  0  0  0
  126.2954  138.7859  134.6797 C   0  0  0  0  0  0  0  0  0  0  0  0
  126.8217  140.1543  134.7796 C   0  0  0  0  0  0  0  0  0  0  0  0
  127.1592  140.5717  135.8990 O   0  0  0  0  0  0  0  0  0  0  0  0
  127.1062  143.3952  129.8099 S   0  0  0  0  0  6  0  0  0  0  0  0
  125.5810  143.8555  129.3054 O   0  0  0  0  0  0  0  0  0  0  0  0
  127.9945  144.6120  130.0040 O   0  0  0  0  0  0  0  0  0  0  0  0
  127.7230  142.5889  128.7019 O   0  0  0  0  0  0  0  0  0  0  0  0
  1  2  1  0
  2  3  2  0
  3  4  1  0
  4  5  2  0
  5  6  1  0
  6  7  1  0
  7  8  2  0
  8  9  1  0
  9 10  2  0
 10 11  1  0
 11 12  1  0
 12 13  2  0
 13 14  1  0
 14 15  1  0
 14 16  2  0
 16 17  1  0
 17 18  1  0
 18 19  1  0
 19 20  2  0
 20 21  1  0
 21 22  2  0
 22 23  1  0
 23 24  2  0
 24 25  1  0
 25 26  1  0
 25 27  2  0
 25 28  2  0
 17 29  2  0
 10 30  1  0
 30 31  2  0
 30 32  1  0
 32 33  1  0
 32 34  2  0
 32 35  2  0
  5 36  1  0
 36 37  2  0
 37 38  1  0
 38 39  2  0
 38 40  1  0
 40 41  2  0
 41 42  1  0
 42 43  2  0
 43 44  1  0
 44 45  2  0
 45 46  1  0
 46 47  2  0
  3 48  1  0
 48 49  1  0
 48 50  2  0
 48 51  2  0
 37  2  1  0
 45 40  1  0
 31  7  1  0
 46 36  1  0
 29 12  1  0
 24 19  1  0
M  END
$$$$
