
     RDKit          3D

 51 56  0  0  0  0  0  0  0  0999 V2000
  193.3556  163.5477  117.3969 N   0  0  0  0  0  0  0  0  0  0  0  0
  193.3960  162.5866  118.4524 C   0  0  0  0  0  0  0  0  0  0  0  0
  192.3148  161.7751  118.7019 C   0  0  0  0  0  0  0  0  0  0  0  0
  192.3796  160.8593  119.7252 C   0  0  0  0  0  0  0  0  0  0  0  0
  193.5170  160.7203  120.5319 C   0  0  0  0  0  0  0  0  0  0  0  0
  193.5571  159.7677  121.5685 N   0  0  0  0  0  0  0  0  0  0  0  0
  192.5030  158.9885  122.0612 C   0  0  0  0  0  0  0  0  0  0  0  0
  192.7748  157.9042  122.8525 C   0  0  0  0  0  0  0  0  0  0  0  0
  191.7967  157.0501  123.3731 C   0  0  0  0  0  0  0  0  0  0  0  0
  190.4767  157.3047  123.0791 C   0  0  0  0  0  0  0  0  0  0  0  0
  189.4536  156.5005  123.5586 N   0  0  0  0  0  0  0  0  0  0  0  0
  188.7989  156.5777  124.8082 C   0  0  0  0  0  0  0  0  0  0  0  0
  187.9583  155.6674  125.2988 N   0  0  0  0  0  0  0  0  0  0  0  0
  187.3819  155.8170  126.4885 C   0  0  0  0  0  0  0  0  0  0  0  0
  186.2653  154.5951  127.1251 Cl  0  0  0  0  0  0  0  0  0  0  0  0
  187.6137  156.8894  127.2592 N   0  0  0  0  0  0  0  0  0  0  0  0
  188.4752  157.8486  126.7855 C   0  0  0  0  0  0  0  0  0  0  0  0
  188.7282  158.9860  127.5913 N   0  0  0  0  0  0  0  0  0  0  0  0
  189.5816  160.0678  127.3170 C   0  0  0  0  0  0  0  0  0  0  0  0
  190.8315  159.9238  126.7898 C   0  0  0  0  0  0  0  0  0  0  0  0
  191.6559  161.0250  126.5286 C   0  0  0  0  0  0  0  0  0  0  0  0
  191.1857  162.2790  126.8133 C   0  0  0  0  0  0  0  0  0  0  0  0
  189.9386  162.4468  127.3410 C   0  0  0  0  0  0  0  0  0  0  0  0
  189.1329  161.3594  127.5957 C   0  0  0  0  0  0  0  0  0  0  0  0
  187.5443  161.5510  128.2672 S   0  0  0  0  0  6  0  0  0  0  0  0
  187.2787  163.1916  128.5533 O   0  0  0  0  0  0  0  0  0  0  0  0
  187.3946  160.7730  129.5506 O   0  0  0  0  0  0  0  0  0  0  0  0
  186.4788  161.0795  127.3130 O   0  0  0  0  0  0  0  0  0  0  0  0
  189.0271  157.6632  125.5996 N   0  0  0  0  0  0  0  0  0  0  0  0
  190.2000  158.4231  122.2631 C   0  0  0  0  0  0  0  0  0  0  0  0
  191.1798  159.2427  121.7671 C   0  0  0  0  0  0  0  0  0  0  0  0
  188.5187  158.7307  121.9009 S   0  0  0  0  0  6  0  0  0  0  0  0
  188.2801  160.3817  121.7558 O   0  0  0  0  0  0  0  0  0  0  0  0
  187.6603  158.1922  123.0386 O   0  0  0  0  0  0  0  0  0  0  0  0
  188.0949  158.0638  120.6026 O   0  0  0  0  0  0  0  0  0  0  0  0
  194.5765  161.5393  120.2577 C   0  0  0  0  0  0  0  0  0  0  0  0
  194.5195  162.4782  119.2152 C   0  0  0  0  0  0  0  0  0  0  0  0
  195.6352  163.3548  118.8795 C   0  0  0  0  0  0  0  0  0  0  0  0
  195.5771  164.1947  117.9461 O   0  0  0  0  0  0  0  0  0  0  0  0
  196.8799  163.2813  119.6336 C   0  0  0  0  0  0  0  0  0  0  0  0
  197.9481  164.0947  119.3406 C   0  0  0  0  0  0  0  0  0  0  0  0
  199.1237  163.9894  120.0909 C   0  0  0  0  0  0  0  0  0  0  0  0
  199.1862  163.0664  121.1142 C   0  0  0  0  0  0  0  0  0  0  0  0
  198.1010  162.2460  121.4056 C   0  0  0  0  0  0  0  0  0  0  0  0
  196.9498  162.3624  120.6568 C   0  0  0  0  0  0  0  0  0  0  0  0
  195.8199  161.4832  120.9883 C   0  0  0  0  0  0  0  0  0  0  0  0
  195.9600  160.6763  121.9213 O   0  0  0  0  0  0  0  0  0  0  0  0
  190.8883  161.9337  117.7083 S   0  0  0  0  0  6  0  0  0  0  0  0
  190.0184  163.3092  118.0876 O   0  0  0  0  0  0  0  0  0  0  0  0
  191.2895  161.9426  116.2432 O   0  0  0  0  0  0  0  0  0  0  0  0
  189.9727  160.7565  117.8930 O   0  0  0  0  0  0  0  0  0  0  0  0
  1  2  1  0
  2  3  2  0
  3  4  1  0
  4  5  2  0
  5  6  1  0
  6  7  1  0
  7  8  2  0
  8  9  1  0
  9 10  2  0
 10 11  1  0
 11 12  1  0
 12 13  2  0
 13 14  1  0
 14 15  1  0
 14 16  2  0
 16 17  1  0
 17 18  1  0
 18 19  1  0
 19 20  2  0
 20 21  1  0
 21 22  2  0
 22 23  1  0
 23 24  2  0
 24 25  1  0
 25 26  1  0
 25 27  2  0
 25 28  2  0
 17 29  2  0
 10 30  1  0
 30 31  2  0
 30 32  1  0
 32 33  1  0
 32 34  2  0
 32 35  2  0
  5 36  1  0
 36 37  2  0
 37 38  1  0
 38 39  2  0
 38 40  1  0
 40 41  2  0
 41 42  1  0
 42 43  2  0
 43 44  1  0
 44 45  2  0
 45 46  1  0
 46 47  2  0
  3 48  1  0
 48 49  1  0
 48 50  2  0
 48 51  2  0
 37  2  1  0
 45 40  1  0
 31  7  1  0
 46 36  1  0
 29 12  1  0
 24 19  1  0
M  END
$$$$
