
     RDKit          3D

 51 56  0  0  0  0  0  0  0  0999 V2000
  199.1400  141.5135  130.3362 N   0  0  0  0  0  0  0  0  0  0  0  0
  200.1606  140.6941  130.9074 C   0  0  0  0  0  0  0  0  0  0  0  0
  199.9121  139.3768  131.2118 C   0  0  0  0  0  0  0  0  0  0  0  0
  200.9119  138.6106  131.7625 C   0  0  0  0  0  0  0  0  0  0  0  0
  202.1874  139.1265  132.0283 C   0  0  0  0  0  0  0  0  0  0  0  0
  203.1945  138.3151  132.5862 N   0  0  0  0  0  0  0  0  0  0  0  0
  203.1273  136.9503  132.8927 C   0  0  0  0  0  0  0  0  0  0  0  0
  202.2959  136.1347  132.1721 C   0  0  0  0  0  0  0  0  0  0  0  0
  202.1388  134.7659  132.4149 C   0  0  0  0  0  0  0  0  0  0  0  0
  202.8585  134.1922  133.4379 C   0  0  0  0  0  0  0  0  0  0  0  0
  202.7527  132.8422  133.7374 N   0  0  0  0  0  0  0  0  0  0  0  0
  203.5443  131.7780  133.2505 C   0  0  0  0  0  0  0  0  0  0  0  0
  203.1975  130.4913  133.2536 N   0  0  0  0  0  0  0  0  0  0  0  0
  204.0045  129.5483  132.7745 C   0  0  0  0  0  0  0  0  0  0  0  0
  203.5260  127.8406  132.7872 Cl  0  0  0  0  0  0  0  0  0  0  0  0
  205.2093  129.8386  132.2626 N   0  0  0  0  0  0  0  0  0  0  0  0
  205.6003  131.1552  132.2432 C   0  0  0  0  0  0  0  0  0  0  0  0
  206.8711  131.4740  131.7043 N   0  0  0  0  0  0  0  0  0  0  0  0
  207.6223  132.6459  131.8952 C   0  0  0  0  0  0  0  0  0  0  0  0
  207.1775  133.8881  131.5489 C   0  0  0  0  0  0  0  0  0  0  0  0
  207.9532  135.0356  131.7540 C   0  0  0  0  0  0  0  0  0  0  0  0
  209.1926  134.8976  132.3191 C   0  0  0  0  0  0  0  0  0  0  0  0
  209.6579  133.6648  132.6734 C   0  0  0  0  0  0  0  0  0  0  0  0
  208.8899  132.5402  132.4689 C   0  0  0  0  0  0  0  0  0  0  0  0
  209.4633  130.9632  132.9114 S   0  0  0  0  0  6  0  0  0  0  0  0
  209.4005  129.9696  131.5503 O   0  0  0  0  0  0  0  0  0  0  0  0
  208.6327  130.3699  134.0217 O   0  0  0  0  0  0  0  0  0  0  0  0
  210.8954  131.0046  133.3760 O   0  0  0  0  0  0  0  0  0  0  0  0
  204.7705  132.0615  132.7283 N   0  0  0  0  0  0  0  0  0  0  0  0
  203.7146  135.0358  134.1787 C   0  0  0  0  0  0  0  0  0  0  0  0
  203.8481  136.3744  133.9177 C   0  0  0  0  0  0  0  0  0  0  0  0
  204.6204  134.2897  135.4731 S   0  0  0  0  0  6  0  0  0  0  0  0
  205.9283  133.4678  134.8270 O   0  0  0  0  0  0  0  0  0  0  0  0
  203.7167  133.3074  136.2078 O   0  0  0  0  0  0  0  0  0  0  0  0
  205.1369  135.3219  136.4619 O   0  0  0  0  0  0  0  0  0  0  0  0
  202.4047  140.4385  131.7125 C   0  0  0  0  0  0  0  0  0  0  0  0
  201.3896  141.2293  131.1505 C   0  0  0  0  0  0  0  0  0  0  0  0
  201.5887  142.6258  130.7819 C   0  0  0  0  0  0  0  0  0  0  0  0
  200.6750  143.3289  130.2808 O   0  0  0  0  0  0  0  0  0  0  0  0
  202.8828  143.2628  130.9880 C   0  0  0  0  0  0  0  0  0  0  0  0
  203.1001  144.5771  130.6508 C   0  0  0  0  0  0  0  0  0  0  0  0
  204.3589  145.1472  130.8661 C   0  0  0  0  0  0  0  0  0  0  0  0
  205.3609  144.3740  131.4151 C   0  0  0  0  0  0  0  0  0  0  0  0
  205.1342  143.0439  131.7542 C   0  0  0  0  0  0  0  0  0  0  0  0
  203.8880  142.4972  131.5357 C   0  0  0  0  0  0  0  0  0  0  0  0
  203.6780  141.0902  131.9046 C   0  0  0  0  0  0  0  0  0  0  0  0
  204.6337  140.4630  132.3888 O   0  0  0  0  0  0  0  0  0  0  0  0
  198.3289  138.7159  130.8887 S   0  0  0  0  0  6  0  0  0  0  0  0
  198.0223  138.6145  129.2491 O   0  0  0  0  0  0  0  0  0  0  0  0
  198.2076  137.3492  131.5403 O   0  0  0  0  0  0  0  0  0  0  0  0
  197.2554  139.5749  131.4955 O   0  0  0  0  0  0  0  0  0  0  0  0
  1  2  1  0
  2  3  2  0
  3  4  1  0
  4  5  2  0
  5  6  1  0
  6  7  1  0
  7  8  2  0
  8  9  1  0
  9 10  2  0
 10 11  1  0
 11 12  1  0
 12 13  2  0
 13 14  1  0
 14 15  1  0
 14 16  2  0
 16 17  1  0
 17 18  1  0
 18 19  1  0
 19 20  2  0
 20 21  1  0
 21 22  2  0
 22 23  1  0
 23 24  2  0
 24 25  1  0
 25 26  1  0
 25 27  2  0
 25 28  2  0
 17 29  2  0
 10 30  1  0
 30 31  2  0
 30 32  1  0
 32 33  1  0
 32 34  2  0
 32 35  2  0
  5 36  1  0
 36 37  2  0
 37 38  1  0
 38 39  2  0
 38 40  1  0
 40 41  2  0
 41 42  1  0
 42 43  2  0
 43 44  1  0
 44 45  2  0
 45 46  1  0
 46 47  2  0
  3 48  1  0
 48 49  1  0
 48 50  2  0
 48 51  2  0
 37  2  1  0
 45 40  1  0
 31  7  1  0
 46 36  1  0
 29 12  1  0
 24 19  1  0
M  END
$$$$
