
     RDKit          3D

 51 56  0  0  0  0  0  0  0  0999 V2000
  115.7849  171.7491  140.2611 N   0  0  0  0  0  0  0  0  0  0  0  0
  115.5013  170.4028  140.6435 C   0  0  0  0  0  0  0  0  0  0  0  0
  116.4572  169.6358  141.2660 C   0  0  0  0  0  0  0  0  0  0  0  0
  116.1583  168.3420  141.6223 C   0  0  0  0  0  0  0  0  0  0  0  0
  114.9040  167.7695  141.3721 C   0  0  0  0  0  0  0  0  0  0  0  0
  114.6241  166.4435  141.7555 N   0  0  0  0  0  0  0  0  0  0  0  0
  115.5115  165.4942  142.2776 C   0  0  0  0  0  0  0  0  0  0  0  0
  116.5552  165.0490  141.5105 C   0  0  0  0  0  0  0  0  0  0  0  0
  117.4802  164.0869  141.9298 C   0  0  0  0  0  0  0  0  0  0  0  0
  117.3436  163.5470  143.1882 C   0  0  0  0  0  0  0  0  0  0  0  0
  118.2216  162.5880  143.6706 N   0  0  0  0  0  0  0  0  0  0  0  0
  119.2835  162.7621  144.5861 C   0  0  0  0  0  0  0  0  0  0  0  0
  120.1756  161.8311  144.9226 N   0  0  0  0  0  0  0  0  0  0  0  0
  121.1481  162.0776  145.7964 C   0  0  0  0  0  0  0  0  0  0  0  0
  122.3263  160.8258  146.2323 Cl  0  0  0  0  0  0  0  0  0  0  0  0
  121.2852  163.2738  146.3863 N   0  0  0  0  0  0  0  0  0  0  0  0
  120.3832  164.2581  146.0634 C   0  0  0  0  0  0  0  0  0  0  0  0
  120.5185  165.5263  146.6801 N   0  0  0  0  0  0  0  0  0  0  0  0
  119.7097  166.6623  146.5084 C   0  0  0  0  0  0  0  0  0  0  0  0
  118.6634  166.7143  145.6346 C   0  0  0  0  0  0  0  0  0  0  0  0
  117.8774  167.8639  145.4891 C   0  0  0  0  0  0  0  0  0  0  0  0
  118.1745  168.9627  146.2499 C   0  0  0  0  0  0  0  0  0  0  0  0
  119.2165  168.9332  147.1304 C   0  0  0  0  0  0  0  0  0  0  0  0
  119.9857  167.7994  147.2685 C   0  0  0  0  0  0  0  0  0  0  0  0
  121.3157  167.7414  148.3818 S   0  0  0  0  0  6  0  0  0  0  0  0
  121.4482  169.2440  149.1357 O   0  0  0  0  0  0  0  0  0  0  0  0
  122.6055  167.4025  147.6772 O   0  0  0  0  0  0  0  0  0  0  0  0
  121.0922  166.7126  149.4588 O   0  0  0  0  0  0  0  0  0  0  0  0
  119.4322  163.9737  145.1916 N   0  0  0  0  0  0  0  0  0  0  0  0
  116.2667  164.0080  143.9763 C   0  0  0  0  0  0  0  0  0  0  0  0
  115.3755  164.9525  143.5386 C   0  0  0  0  0  0  0  0  0  0  0  0
  116.1095  163.3117  145.5709 S   0  0  0  0  0  6  0  0  0  0  0  0
  117.5906  163.3789  146.3492 O   0  0  0  0  0  0  0  0  0  0  0  0
  115.6730  161.8583  145.4359 O   0  0  0  0  0  0  0  0  0  0  0  0
  115.0867  164.0599  146.4099 O   0  0  0  0  0  0  0  0  0  0  0  0
  113.9738  168.5578  140.7542 C   0  0  0  0  0  0  0  0  0  0  0  0
  114.2699  169.8800  140.3859 C   0  0  0  0  0  0  0  0  0  0  0  0
  113.2987  170.7576  139.7437 C   0  0  0  0  0  0  0  0  0  0  0  0
  113.5709  171.9400  139.4147 O   0  0  0  0  0  0  0  0  0  0  0  0
  111.9525  170.2792  139.4577 C   0  0  0  0  0  0  0  0  0  0  0  0
  111.0161  171.0830  138.8532 C   0  0  0  0  0  0  0  0  0  0  0  0
  109.7356  170.5817  138.5981 C   0  0  0  0  0  0  0  0  0  0  0  0
  109.4383  169.2844  138.9607 C   0  0  0  0  0  0  0  0  0  0  0  0
  110.3911  168.4758  139.5724 C   0  0  0  0  0  0  0  0  0  0  0  0
  111.6483  168.9850  139.8167 C   0  0  0  0  0  0  0  0  0  0  0  0
  112.6338  168.1074  140.4633 C   0  0  0  0  0  0  0  0  0  0  0  0
  112.2840  166.9544  140.7623 O   0  0  0  0  0  0  0  0  0  0  0  0
  118.0263  170.3309  141.5856 S   0  0  0  0  0  6  0  0  0  0  0  0
  117.9567  171.4941  142.7834 O   0  0  0  0  0  0  0  0  0  0  0  0
  119.0005  169.2296  141.9666 O   0  0  0  0  0  0  0  0  0  0  0  0
  118.5834  170.9861  140.3532 O   0  0  0  0  0  0  0  0  0  0  0  0
  1  2  1  0
  2  3  2  0
  3  4  1  0
  4  5  2  0
  5  6  1  0
  6  7  1  0
  7  8  2  0
  8  9  1  0
  9 10  2  0
 10 11  1  0
 11 12  1  0
 12 13  2  0
 13 14  1  0
 14 15  1  0
 14 16  2  0
 16 17  1  0
 17 18  1  0
 18 19  1  0
 19 20  2  0
 20 21  1  0
 21 22  2  0
 22 23  1  0
 23 24  2  0
 24 25  1  0
 25 26  1  0
 25 27  2  0
 25 28  2  0
 17 29  2  0
 10 30  1  0
 30 31  2  0
 30 32  1  0
 32 33  1  0
 32 34  2  0
 32 35  2  0
  5 36  1  0
 36 37  2  0
 37 38  1  0
 38 39  2  0
 38 40  1  0
 40 41  2  0
 41 42  1  0
 42 43  2  0
 43 44  1  0
 44 45  2  0
 45 46  1  0
 46 47  2  0
  3 48  1  0
 48 49  1  0
 48 50  2  0
 48 51  2  0
 37  2  1  0
 45 40  1  0
 31  7  1  0
 46 36  1  0
 29 12  1  0
 24 19  1  0
M  END
$$$$
