
     RDKit          3D

 51 56  0  0  0  0  0  0  0  0999 V2000
  133.2128  139.3913  127.4610 N   0  0  0  0  0  0  0  0  0  0  0  0
  132.3566  140.4133  127.9724 C   0  0  0  0  0  0  0  0  0  0  0  0
  132.4894  140.8546  129.2675 C   0  0  0  0  0  0  0  0  0  0  0  0
  131.6510  141.8388  129.7350 C   0  0  0  0  0  0  0  0  0  0  0  0
  130.6559  142.4147  128.9338 C   0  0  0  0  0  0  0  0  0  0  0  0
  129.8164  143.4268  129.4381 N   0  0  0  0  0  0  0  0  0  0  0  0
  129.6176  143.7918  130.7755 C   0  0  0  0  0  0  0  0  0  0  0  0
  130.4686  143.3204  131.7396 C   0  0  0  0  0  0  0  0  0  0  0  0
  130.3416  143.6059  133.1032 C   0  0  0  0  0  0  0  0  0  0  0  0
  129.3019  144.4086  133.5135 C   0  0  0  0  0  0  0  0  0  0  0  0
  129.1125  144.7327  134.8486 N   0  0  0  0  0  0  0  0  0  0  0  0
  128.5414  143.9352  135.8653 C   0  0  0  0  0  0  0  0  0  0  0  0
  128.2399  144.3489  137.0957 N   0  0  0  0  0  0  0  0  0  0  0  0
  127.7025  143.5306  137.9967 C   0  0  0  0  0  0  0  0  0  0  0  0
  127.3082  144.0990  139.6297 Cl  0  0  0  0  0  0  0  0  0  0  0  0
  127.4346  142.2467  137.7183 N   0  0  0  0  0  0  0  0  0  0  0  0
  127.7324  141.7852  136.4594 C   0  0  0  0  0  0  0  0  0  0  0  0
  127.4533  140.4304  136.1535 N   0  0  0  0  0  0  0  0  0  0  0  0
  127.5604  139.7845  134.9104 C   0  0  0  0  0  0  0  0  0  0  0  0
  127.8340  140.4387  133.7450 C   0  0  0  0  0  0  0  0  0  0  0  0
  127.9340  139.7628  132.5229 C   0  0  0  0  0  0  0  0  0  0  0  0
  127.7507  138.4061  132.5062 C   0  0  0  0  0  0  0  0  0  0  0  0
  127.4762  137.7310  133.6599 C   0  0  0  0  0  0  0  0  0  0  0  0
  127.3791  138.4019  134.8586 C   0  0  0  0  0  0  0  0  0  0  0  0
  127.0299  137.5625  136.3367 S   0  0  0  0  0  6  0  0  0  0  0  0
  128.1646  138.0248  137.4954 O   0  0  0  0  0  0  0  0  0  0  0  0
  127.0726  136.0676  136.1411 O   0  0  0  0  0  0  0  0  0  0  0  0
  125.6674  137.9210  136.8690 O   0  0  0  0  0  0  0  0  0  0  0  0
  128.2651  142.6289  135.5934 N   0  0  0  0  0  0  0  0  0  0  0  0
  128.4265  144.8928  132.5172 C   0  0  0  0  0  0  0  0  0  0  0  0
  128.5760  144.5961  131.1877 C   0  0  0  0  0  0  0  0  0  0  0  0
  127.1129  145.9104  133.0568 S   0  0  0  0  0  6  0  0  0  0  0  0
  126.0938  146.2243  131.7659 O   0  0  0  0  0  0  0  0  0  0  0  0
  127.6852  147.2212  133.5817 O   0  0  0  0  0  0  0  0  0  0  0  0
  126.3067  145.2452  134.1602 O   0  0  0  0  0  0  0  0  0  0  0  0
  130.5501  141.9568  127.6502 C   0  0  0  0  0  0  0  0  0  0  0  0
  131.4013  140.9516  127.1639 C   0  0  0  0  0  0  0  0  0  0  0  0
  131.3325  140.4516  125.7960 C   0  0  0  0  0  0  0  0  0  0  0  0
  132.0964  139.5499  125.3674 O   0  0  0  0  0  0  0  0  0  0  0  0
  130.3537  140.9950  124.8635 C   0  0  0  0  0  0  0  0  0  0  0  0
  130.2650  140.5435  123.5686 C   0  0  0  0  0  0  0  0  0  0  0  0
  129.3102  141.0944  122.7079 C   0  0  0  0  0  0  0  0  0  0  0  0
  128.4734  142.0846  123.1796 C   0  0  0  0  0  0  0  0  0  0  0  0
  128.5685  142.5371  124.4918 C   0  0  0  0  0  0  0  0  0  0  0  0
  129.5148  141.9837  125.3271 C   0  0  0  0  0  0  0  0  0  0  0  0
  129.5910  142.4813  126.7078 C   0  0  0  0  0  0  0  0  0  0  0  0
  128.8044  143.3782  127.0513 O   0  0  0  0  0  0  0  0  0  0  0  0
  133.7227  140.1489  130.2815 S   0  0  0  0  0  6  0  0  0  0  0  0
  135.0525  141.1504  130.4284 O   0  0  0  0  0  0  0  0  0  0  0  0
  133.1373  139.8347  131.6475 O   0  0  0  0  0  0  0  0  0  0  0  0
  134.2026  138.8436  129.7122 O   0  0  0  0  0  0  0  0  0  0  0  0
  1  2  1  0
  2  3  2  0
  3  4  1  0
  4  5  2  0
  5  6  1  0
  6  7  1  0
  7  8  2  0
  8  9  1  0
  9 10  2  0
 10 11  1  0
 11 12  1  0
 12 13  2  0
 13 14  1  0
 14 15  1  0
 14 16  2  0
 16 17  1  0
 17 18  1  0
 18 19  1  0
 19 20  2  0
 20 21  1  0
 21 22  2  0
 22 23  1  0
 23 24  2  0
 24 25  1  0
 25 26  1  0
 25 27  2  0
 25 28  2  0
 17 29  2  0
 10 30  1  0
 30 31  2  0
 30 32  1  0
 32 33  1  0
 32 34  2  0
 32 35  2  0
  5 36  1  0
 36 37  2  0
 37 38  1  0
 38 39  2  0
 38 40  1  0
 40 41  2  0
 41 42  1  0
 42 43  2  0
 43 44  1  0
 44 45  2  0
 45 46  1  0
 46 47  2  0
  3 48  1  0
 48 49  1  0
 48 50  2  0
 48 51  2  0
 37  2  1  0
 45 40  1  0
 31  7  1  0
 46 36  1  0
 29 12  1  0
 24 19  1  0
M  END
$$$$
