
     RDKit          3D

 51 56  0  0  0  0  0  0  0  0999 V2000
  124.8453  133.0114  130.7204 N   0  0  0  0  0  0  0  0  0  0  0  0
  125.9947  133.8556  130.7937 C   0  0  0  0  0  0  0  0  0  0  0  0
  126.0038  134.9556  131.6181 C   0  0  0  0  0  0  0  0  0  0  0  0
  127.1228  135.7526  131.6686 C   0  0  0  0  0  0  0  0  0  0  0  0
  128.2659  135.4839  130.9037 C   0  0  0  0  0  0  0  0  0  0  0  0
  129.4008  136.3144  130.9820 N   0  0  0  0  0  0  0  0  0  0  0  0
  129.5718  137.4651  131.7615 C   0  0  0  0  0  0  0  0  0  0  0  0
  130.7714  137.6899  132.3830 C   0  0  0  0  0  0  0  0  0  0  0  0
  131.0345  138.7938  133.2010 C   0  0  0  0  0  0  0  0  0  0  0  0
  130.0345  139.7176  133.4014 C   0  0  0  0  0  0  0  0  0  0  0  0
  130.2224  140.8354  134.2005 N   0  0  0  0  0  0  0  0  0  0  0  0
  130.9352  142.0157  133.8924 C   0  0  0  0  0  0  0  0  0  0  0  0
  130.9977  143.1043  134.6586 N   0  0  0  0  0  0  0  0  0  0  0  0
  131.6938  144.1776  134.2934 C   0  0  0  0  0  0  0  0  0  0  0  0
  131.7650  145.6177  135.3261 Cl  0  0  0  0  0  0  0  0  0  0  0  0
  132.3703  144.2245  133.1367 N   0  0  0  0  0  0  0  0  0  0  0  0
  132.3286  143.1201  132.3212 C   0  0  0  0  0  0  0  0  0  0  0  0
  133.0400  143.1580  131.0966 N   0  0  0  0  0  0  0  0  0  0  0  0
  133.3044  142.0950  130.2168 C   0  0  0  0  0  0  0  0  0  0  0  0
  133.8165  140.8964  130.6192 C   0  0  0  0  0  0  0  0  0  0  0  0
  134.0676  139.8578  129.7144 C   0  0  0  0  0  0  0  0  0  0  0  0
  133.7880  140.0596  128.3894 C   0  0  0  0  0  0  0  0  0  0  0  0
  133.2753  141.2506  127.9643 C   0  0  0  0  0  0  0  0  0  0  0  0
  133.0307  142.2680  128.8595 C   0  0  0  0  0  0  0  0  0  0  0  0
  132.3799  143.7904  128.3394 S   0  0  0  0  0  6  0  0  0  0  0  0
  133.2791  145.0274  129.0501 O   0  0  0  0  0  0  0  0  0  0  0  0
  130.9270  143.9242  128.7214 O   0  0  0  0  0  0  0  0  0  0  0  0
  132.4833  143.9560  126.8461 O   0  0  0  0  0  0  0  0  0  0  0  0
  131.6262  142.0744  132.7195 N   0  0  0  0  0  0  0  0  0  0  0  0
  128.7991  139.4830  132.7594 C   0  0  0  0  0  0  0  0  0  0  0  0
  128.5703  138.3916  131.9630 C   0  0  0  0  0  0  0  0  0  0  0  0
  127.5418  140.6665  133.0251 S   0  0  0  0  0  6  0  0  0  0  0  0
  126.0723  140.0268  132.5403 O   0  0  0  0  0  0  0  0  0  0  0  0
  127.8502  141.9103  132.2009 O   0  0  0  0  0  0  0  0  0  0  0  0
  127.4409  141.0564  134.4906 O   0  0  0  0  0  0  0  0  0  0  0  0
  128.2275  134.3820  130.0958 C   0  0  0  0  0  0  0  0  0  0  0  0
  127.0889  133.5625  130.0369 C   0  0  0  0  0  0  0  0  0  0  0  0
  127.0172  132.3685  129.2032 C   0  0  0  0  0  0  0  0  0  0  0  0
  125.9939  131.6400  129.1535 O   0  0  0  0  0  0  0  0  0  0  0  0
  128.1560  131.9750  128.3839 C   0  0  0  0  0  0  0  0  0  0  0  0
  128.1176  130.8554  127.5880 C   0  0  0  0  0  0  0  0  0  0  0  0
  129.2347  130.5154  126.8183 C   0  0  0  0  0  0  0  0  0  0  0  0
  130.3572  131.3154  126.8747 C   0  0  0  0  0  0  0  0  0  0  0  0
  130.3894  132.4476  127.6826 C   0  0  0  0  0  0  0  0  0  0  0  0
  129.2801  132.7687  128.4349 C   0  0  0  0  0  0  0  0  0  0  0  0
  129.3433  133.9708  129.2779 C   0  0  0  0  0  0  0  0  0  0  0  0
  130.3931  134.6333  129.2753 O   0  0  0  0  0  0  0  0  0  0  0  0
  124.5889  135.3074  132.5782 S   0  0  0  0  0  6  0  0  0  0  0  0
  124.3423  134.1559  133.7639 O   0  0  0  0  0  0  0  0  0  0  0  0
  124.7258  136.6886  133.1954 O   0  0  0  0  0  0  0  0  0  0  0  0
  123.3549  135.3432  131.7214 O   0  0  0  0  0  0  0  0  0  0  0  0
  1  2  1  0
  2  3  2  0
  3  4  1  0
  4  5  2  0
  5  6  1  0
  6  7  1  0
  7  8  2  0
  8  9  1  0
  9 10  2  0
 10 11  1  0
 11 12  1  0
 12 13  2  0
 13 14  1  0
 14 15  1  0
 14 16  2  0
 16 17  1  0
 17 18  1  0
 18 19  1  0
 19 20  2  0
 20 21  1  0
 21 22  2  0
 22 23  1  0
 23 24  2  0
 24 25  1  0
 25 26  1  0
 25 27  2  0
 25 28  2  0
 17 29  2  0
 10 30  1  0
 30 31  2  0
 30 32  1  0
 32 33  1  0
 32 34  2  0
 32 35  2  0
  5 36  1  0
 36 37  2  0
 37 38  1  0
 38 39  2  0
 38 40  1  0
 40 41  2  0
 41 42  1  0
 42 43  2  0
 43 44  1  0
 44 45  2  0
 45 46  1  0
 46 47  2  0
  3 48  1  0
 48 49  1  0
 48 50  2  0
 48 51  2  0
 37  2  1  0
 45 40  1  0
 31  7  1  0
 46 36  1  0
 29 12  1  0
 24 19  1  0
M  END
$$$$
