
     RDKit          3D

 37 41  0  0  0  0  0  0  0  0999 V2000
  166.0401  159.9582  109.7772 C   0  0  0  0  0  0  0  0  0  0  0  0
  166.7851  159.3785  108.6130 C   0  0  0  0  0  0  0  0  0  0  0  0
  166.6132  158.2008  108.2159 O   0  0  0  0  0  0  0  0  0  0  0  0
  167.7155  160.1205  107.9033 O   0  0  0  0  0  0  0  0  0  0  0  0
  168.5241  161.0693  108.4973 C   0  0  1  0  0  0  0  0  0  0  0  0
  167.9734  162.4425  108.5876 C   0  0  0  0  0  0  0  0  0  0  0  0
  169.0587  163.4301  108.9552 C   0  0  0  0  0  0  0  0  0  0  0  0
  169.7942  163.0477  110.2172 C   0  0  1  0  0  0  0  0  0  0  0  0
  168.9442  163.5352  111.3679 C   0  0  0  0  0  0  0  0  0  0  0  0
  170.0791  161.5701  110.2858 C   0  0  1  0  0  0  0  0  0  0  0  0
  170.7042  161.2401  111.6194 C   0  0  0  0  0  0  0  0  0  0  0  0
  172.0157  161.9518  111.7812 C   0  0  0  0  0  0  0  0  0  0  0  0
  172.0522  163.3512  111.3241 C   0  0  2  0  0  0  0  0  0  0  0  0
  171.7495  164.3116  112.4729 C   0  0  0  0  0  0  0  0  0  0  0  0
  171.1498  163.6963  110.1714 C   0  0  2  0  0  0  0  0  0  0  0  0
  171.1821  165.1426  109.9919 C   0  0  0  0  0  0  0  0  0  0  0  0
  170.2647  165.8572  109.5185 O   0  0  0  0  0  0  0  0  0  0  0  0
  172.4021  165.8312  110.4031 C   0  0  0  0  0  0  0  0  0  0  0  0
  173.4956  165.1984  110.8141 C   0  0  0  0  0  0  0  0  0  0  0  0
  174.6550  166.0142  111.1995 C   0  0  2  0  0  0  0  0  0  0  0  0
  175.3078  166.6883  109.9846 C   0  0  0  0  0  0  0  0  0  0  0  0
  176.1824  167.8275  110.4808 C   0  0  2  0  0  0  0  0  0  0  0  0
  177.1172  168.2350  109.3420 C   0  0  0  0  0  0  0  0  0  0  0  0
  177.0560  167.4002  111.6289 C   0  0  0  0  0  0  0  0  0  0  0  0
  177.1065  165.9072  111.6542 C   0  0  0  0  0  0  0  0  0  0  0  0
  175.7183  165.3149  111.9569 C   0  0  1  0  0  0  0  0  0  0  0  0
  175.5091  165.5334  113.4512 C   0  0  0  0  0  0  0  0  0  0  0  0
  175.8301  163.8591  111.6735 C   0  0  0  0  0  0  0  0  0  0  0  0
  174.4969  163.1767  111.8385 C   0  0  0  0  0  0  0  0  0  0  0  0
  173.4647  163.7149  110.8550 C   0  0  1  0  0  0  0  0  0  0  0  0
  173.7848  163.0773  109.5208 C   0  0  0  0  0  0  0  0  0  0  0  0
  175.3878  168.9920  110.8928 C   0  0  0  0  0  0  0  0  0  0  0  0
  174.1991  169.3381  110.2564 O   0  0  0  0  0  0  0  0  0  0  0  0
  175.7511  169.7293  111.8440 O   0  0  0  0  0  0  0  0  0  0  0  0
  168.9762  160.6633  109.9019 C   0  0  0  0  0  0  0  0  0  0  0  0
  169.6074  159.2726  109.7065 C   0  0  0  0  0  0  0  0  0  0  0  0
  167.8631  160.5046  110.8569 C   0  0  0  0  0  0  0  0  0  0  0  0
  1  2  1  0
  2  3  2  0
  2  4  1  0
  5  4  1  1
  5  6  1  0
  6  7  1  0
  7  8  1  0
  8  9  1  1
  8 10  1  0
 10 11  1  1
 11 12  1  0
 12 13  1  0
 13 14  1  1
 13 15  1  0
 15 16  1  1
 16 17  2  0
 16 18  1  0
 18 19  2  0
 19 20  1  0
 20 21  1  6
 21 22  1  0
 22 23  1  6
 22 24  1  0
 24 25  1  0
 25 26  1  0
 26 27  1  1
 26 28  1  0
 28 29  1  0
 29 30  1  0
 30 31  1  6
 22 32  1  0
 32 33  1  0
 32 34  2  0
 10 35  1  0
 35 36  1  0
 35 37  1  0
 35  5  1  0
 15  8  1  0
 30 19  1  0
 30 13  1  0
 26 20  1  0
M  END
$$$$
