
     RDKit          3D

 37 41  0  0  0  0  0  0  0  0999 V2000
  170.3182  152.4464  131.2741 C   0  0  0  0  0  0  0  0  0  0  0  0
  170.0975  152.8904  129.8597 C   0  0  0  0  0  0  0  0  0  0  0  0
  170.1003  154.0980  129.5192 O   0  0  0  0  0  0  0  0  0  0  0  0
  169.8757  151.9804  128.8385 O   0  0  0  0  0  0  0  0  0  0  0  0
  168.6489  151.3842  128.6228 C   0  0  1  0  0  0  0  0  0  0  0  0
  167.7823  151.2083  129.8125 C   0  0  0  0  0  0  0  0  0  0  0  0
  166.6337  150.2739  129.5031 C   0  0  0  0  0  0  0  0  0  0  0  0
  165.8338  150.7093  128.2988 C   0  0  1  0  0  0  0  0  0  0  0  0
  164.8635  151.7586  128.7907 C   0  0  0  0  0  0  0  0  0  0  0  0
  166.7120  151.2042  127.1794 C   0  0  1  0  0  0  0  0  0  0  0  0
  165.8490  151.7337  126.0601 C   0  0  0  0  0  0  0  0  0  0  0  0
  164.9845  150.6442  125.4958 C   0  0  0  0  0  0  0  0  0  0  0  0
  164.3690  149.7345  126.4768 C   0  0  2  0  0  0  0  0  0  0  0  0
  162.9699  150.2106  126.8641 C   0  0  0  0  0  0  0  0  0  0  0  0
  165.1505  149.4928  127.7389 C   0  0  2  0  0  0  0  0  0  0  0  0
  164.3062  148.7327  128.6524 C   0  0  0  0  0  0  0  0  0  0  0  0
  164.3588  148.7493  129.9067 O   0  0  0  0  0  0  0  0  0  0  0  0
  163.2979  147.8648  128.0510 C   0  0  0  0  0  0  0  0  0  0  0  0
  163.1986  147.6572  126.7425 C   0  0  0  0  0  0  0  0  0  0  0  0
  162.1364  146.7588  126.2703 C   0  0  2  0  0  0  0  0  0  0  0  0
  162.4181  145.2965  126.6429 C   0  0  0  0  0  0  0  0  0  0  0  0
  161.1203  144.5143  126.5297 C   0  0  2  0  0  0  0  0  0  0  0  0
  161.4667  143.0255  126.5132 C   0  0  0  0  0  0  0  0  0  0  0  0
  160.4030  144.8083  125.2402 C   0  0  0  0  0  0  0  0  0  0  0  0
  161.3713  145.4405  124.2942 C   0  0  0  0  0  0  0  0  0  0  0  0
  161.8402  146.8091  124.8200 C   0  0  1  0  0  0  0  0  0  0  0  0
  160.6704  147.7542  124.5701 C   0  0  0  0  0  0  0  0  0  0  0  0
  162.9916  147.1981  123.9625 C   0  0  0  0  0  0  0  0  0  0  0  0
  163.6077  148.4861  124.4436 C   0  0  0  0  0  0  0  0  0  0  0  0
  164.1664  148.3490  125.8547 C   0  0  1  0  0  0  0  0  0  0  0  0
  165.4786  147.6089  125.7157 C   0  0  0  0  0  0  0  0  0  0  0  0
  160.2142  144.7863  127.6531 C   0  0  0  0  0  0  0  0  0  0  0  0
  160.5800  145.6084  128.7154 O   0  0  0  0  0  0  0  0  0  0  0  0
  159.0627  144.2844  127.7021 O   0  0  0  0  0  0  0  0  0  0  0  0
  167.8221  152.1054  127.5559 C   0  0  0  0  0  0  0  0  0  0  0  0
  168.7586  152.1717  126.3355 C   0  0  0  0  0  0  0  0  0  0  0  0
  167.4780  153.4942  127.9151 C   0  0  0  0  0  0  0  0  0  0  0  0
  1  2  1  0
  2  3  2  0
  2  4  1  0
  5  4  1  1
  5  6  1  0
  6  7  1  0
  7  8  1  0
  8  9  1  1
  8 10  1  0
 10 11  1  6
 11 12  1  0
 12 13  1  0
 13 14  1  1
 13 15  1  0
 15 16  1  1
 16 17  2  0
 16 18  1  0
 18 19  2  0
 19 20  1  0
 20 21  1  6
 21 22  1  0
 22 23  1  6
 22 24  1  0
 24 25  1  0
 25 26  1  0
 26 27  1  1
 26 28  1  0
 28 29  1  0
 29 30  1  0
 30 31  1  6
 22 32  1  0
 32 33  1  0
 32 34  2  0
 10 35  1  0
 35 36  1  0
 35 37  1  0
 35  5  1  0
 15  8  1  0
 30 19  1  0
 30 13  1  0
 26 20  1  0
M  END
$$$$
