
     RDKit          3D

 37 41  0  0  0  0  0  0  0  0999 V2000
  107.1790  170.5911  160.9527 C   0  0  0  0  0  0  0  0  0  0  0  0
  107.7032  169.3901  161.6802 C   0  0  0  0  0  0  0  0  0  0  0  0
  108.6276  169.4590  162.5258 O   0  0  0  0  0  0  0  0  0  0  0  0
  107.1893  168.1230  161.4558 O   0  0  0  0  0  0  0  0  0  0  0  0
  106.4962  167.7904  160.3087 C   0  0  1  0  0  0  0  0  0  0  0  0
  105.6700  168.8617  159.7029 C   0  0  0  0  0  0  0  0  0  0  0  0
  104.7317  168.2892  158.6636 C   0  0  0  0  0  0  0  0  0  0  0  0
  105.4501  167.4842  157.6074 C   0  0  1  0  0  0  0  0  0  0  0  0
  105.9773  168.4803  156.6002 C   0  0  0  0  0  0  0  0  0  0  0  0
  106.5327  166.6146  158.1912 C   0  0  1  0  0  0  0  0  0  0  0  0
  107.2864  165.9330  157.0753 C   0  0  0  0  0  0  0  0  0  0  0  0
  106.3745  165.0368  156.2892 C   0  0  0  0  0  0  0  0  0  0  0  0
  105.0354  165.5747  155.9958 C   0  0  2  0  0  0  0  0  0  0  0  0
  105.0088  166.2683  154.6349 C   0  0  0  0  0  0  0  0  0  0  0  0
  104.4611  166.5181  157.0166 C   0  0  2  0  0  0  0  0  0  0  0  0
  103.2353  167.0841  156.4671 C   0  0  0  0  0  0  0  0  0  0  0  0
  102.7429  168.2063  156.7400 O   0  0  0  0  0  0  0  0  0  0  0  0
  102.5056  166.2662  155.5027 C   0  0  0  0  0  0  0  0  0  0  0  0
  102.8413  165.0163  155.2020 C   0  0  0  0  0  0  0  0  0  0  0  0
  102.0201  164.3057  154.2126 C   0  0  2  0  0  0  0  0  0  0  0  0
  100.6273  163.9688  154.7631 C   0  0  0  0  0  0  0  0  0  0  0  0
   99.7123  163.6532  153.5918 C   0  0  2  0  0  0  0  0  0  0  0  0
   98.4700  162.9506  154.1396 C   0  0  0  0  0  0  0  0  0  0  0  0
  100.3574  162.7019  152.6210 C   0  0  0  0  0  0  0  0  0  0  0  0
  101.5088  162.0384  153.3038 C   0  0  0  0  0  0  0  0  0  0  0  0
  102.6025  163.0621  153.6579 C   0  0  1  0  0  0  0  0  0  0  0  0
  103.3025  163.3698  152.3390 C   0  0  0  0  0  0  0  0  0  0  0  0
  103.5394  162.3527  154.5697 C   0  0  0  0  0  0  0  0  0  0  0  0
  104.6105  163.2866  155.0705 C   0  0  0  0  0  0  0  0  0  0  0  0
  104.0215  164.4311  155.8862 C   0  0  1  0  0  0  0  0  0  0  0  0
  103.6933  163.8520  157.2449 C   0  0  0  0  0  0  0  0  0  0  0  0
   99.3024  164.8658  152.8714 C   0  0  0  0  0  0  0  0  0  0  0  0
   99.7941  166.1249  153.2044 O   0  0  0  0  0  0  0  0  0  0  0  0
   98.4850  164.8162  151.9177 O   0  0  0  0  0  0  0  0  0  0  0  0
  107.4059  167.2362  159.2098 C   0  0  0  0  0  0  0  0  0  0  0  0
  108.1620  166.0825  159.8938 C   0  0  0  0  0  0  0  0  0  0  0  0
  108.4183  168.2007  158.7398 C   0  0  0  0  0  0  0  0  0  0  0  0
  1  2  1  0
  2  3  2  0
  2  4  1  0
  5  4  1  1
  5  6  1  0
  6  7  1  0
  7  8  1  0
  8  9  1  6
  8 10  1  0
 10 11  1  6
 11 12  1  0
 12 13  1  0
 13 14  1  6
 13 15  1  0
 15 16  1  6
 16 17  2  0
 16 18  1  0
 18 19  2  0
 19 20  1  0
 20 21  1  1
 21 22  1  0
 22 23  1  1
 22 24  1  0
 24 25  1  0
 25 26  1  0
 26 27  1  6
 26 28  1  0
 28 29  1  0
 29 30  1  0
 30 31  1  1
 22 32  1  0
 32 33  1  0
 32 34  2  0
 10 35  1  0
 35 36  1  0
 35 37  1  0
 35  5  1  0
 15  8  1  0
 30 19  1  0
 30 13  1  0
 26 20  1  0
M  END
$$$$
