
     RDKit          3D

 37 41  0  0  0  0  0  0  0  0999 V2000
  184.8062  165.2133  120.2489 C   0  0  0  0  0  0  0  0  0  0  0  0
  184.8766  165.3798  121.7367 C   0  0  0  0  0  0  0  0  0  0  0  0
  185.0943  166.4866  122.2861 O   0  0  0  0  0  0  0  0  0  0  0  0
  184.7031  164.3075  122.5970 O   0  0  0  0  0  0  0  0  0  0  0  0
  185.7202  163.4263  122.9067 C   0  0  1  0  0  0  0  0  0  0  0  0
  186.1820  162.5403  121.8117 C   0  0  0  0  0  0  0  0  0  0  0  0
  187.0521  161.4287  122.3552 C   0  0  0  0  0  0  0  0  0  0  0  0
  188.2119  161.9414  123.1747 C   0  0  1  0  0  0  0  0  0  0  0  0
  189.2927  162.3218  122.1890 C   0  0  0  0  0  0  0  0  0  0  0  0
  187.8141  163.0819  124.0749 C   0  0  1  0  0  0  0  0  0  0  0  0
  189.0386  163.6230  124.7717 C   0  0  0  0  0  0  0  0  0  0  0  0
  189.6632  162.5705  125.6405 C   0  0  0  0  0  0  0  0  0  0  0  0
  189.7321  161.2161  125.0664 C   0  0  2  0  0  0  0  0  0  0  0  0
  191.0704  160.9841  124.3670 C   0  0  0  0  0  0  0  0  0  0  0  0
  188.6310  160.8433  124.1121 C   0  0  2  0  0  0  0  0  0  0  0  0
  188.9713  159.5592  123.5118 C   0  0  0  0  0  0  0  0  0  0  0  0
  188.6215  159.1486  122.3781 O   0  0  0  0  0  0  0  0  0  0  0  0
  189.8018  158.6590  124.3065 C   0  0  0  0  0  0  0  0  0  0  0  0
  190.1531  158.9072  125.5636 C   0  0  0  0  0  0  0  0  0  0  0  0
  190.9932  157.9154  126.2484 C   0  0  2  0  0  0  0  0  0  0  0  0
  190.2205  156.6239  126.5507 C   0  0  0  0  0  0  0  0  0  0  0  0
  191.2248  155.5203  126.8375 C   0  0  2  0  0  0  0  0  0  0  0  0
  190.4793  154.3670  127.5092 C   0  0  0  0  0  0  0  0  0  0  0  0
  192.2882  155.9710  127.8017 C   0  0  0  0  0  0  0  0  0  0  0  0
  191.8040  157.2012  128.4979 C   0  0  0  0  0  0  0  0  0  0  0  0
  191.6356  158.3651  127.5048 C   0  0  1  0  0  0  0  0  0  0  0  0
  193.0521  158.8461  127.2106 C   0  0  0  0  0  0  0  0  0  0  0  0
  190.8904  159.4202  128.2422 C   0  0  0  0  0  0  0  0  0  0  0  0
  190.5735  160.5837  127.3388 C   0  0  0  0  0  0  0  0  0  0  0  0
  189.6724  160.1679  126.1824 C   0  0  1  0  0  0  0  0  0  0  0  0
  188.2780  160.0528  126.7580 C   0  0  0  0  0  0  0  0  0  0  0  0
  191.8683  155.0298  125.6117 C   0  0  0  0  0  0  0  0  0  0  0  0
  191.4276  153.8855  124.9527 O   0  0  0  0  0  0  0  0  0  0  0  0
  192.8506  155.6274  125.1035 O   0  0  0  0  0  0  0  0  0  0  0  0
  186.9537  164.1272  123.4805 C   0  0  0  0  0  0  0  0  0  0  0  0
  186.4030  164.9548  124.6563 C   0  0  0  0  0  0  0  0  0  0  0  0
  187.5846  165.0737  122.5412 C   0  0  0  0  0  0  0  0  0  0  0  0
  1  2  1  0
  2  3  2  0
  2  4  1  0
  5  4  1  6
  5  6  1  0
  6  7  1  0
  7  8  1  0
  8  9  1  6
  8 10  1  0
 10 11  1  6
 11 12  1  0
 12 13  1  0
 13 14  1  6
 13 15  1  0
 15 16  1  6
 16 17  2  0
 16 18  1  0
 18 19  2  0
 19 20  1  0
 20 21  1  1
 21 22  1  0
 22 23  1  1
 22 24  1  0
 24 25  1  0
 25 26  1  0
 26 27  1  6
 26 28  1  0
 28 29  1  0
 29 30  1  0
 30 31  1  1
 22 32  1  0
 32 33  1  0
 32 34  2  0
 10 35  1  0
 35 36  1  0
 35 37  1  0
 35  5  1  0
 15  8  1  0
 30 19  1  0
 30 13  1  0
 26 20  1  0
M  END
$$$$
