
     RDKit          3D

 37 41  0  0  0  0  0  0  0  0999 V2000
  168.0033  147.4327  125.6704 C   0  0  0  0  0  0  0  0  0  0  0  0
  168.4256  148.7592  126.2256 C   0  0  0  0  0  0  0  0  0  0  0  0
  167.6892  149.4478  126.9725 O   0  0  0  0  0  0  0  0  0  0  0  0
  169.6675  149.3041  125.9411 O   0  0  0  0  0  0  0  0  0  0  0  0
  170.6614  148.5989  125.2917 C   0  0  1  0  0  0  0  0  0  0  0  0
  170.9523  147.2405  125.8088 C   0  0  0  0  0  0  0  0  0  0  0  0
  172.2486  146.7158  125.2322 C   0  0  0  0  0  0  0  0  0  0  0  0
  172.2722  146.7471  123.7228 C   0  0  1  0  0  0  0  0  0  0  0  0
  171.5493  145.5027  123.2612 C   0  0  0  0  0  0  0  0  0  0  0  0
  171.6703  148.0122  123.1691 C   0  0  1  0  0  0  0  0  0  0  0  0
  171.6156  147.9256  121.6634 C   0  0  0  0  0  0  0  0  0  0  0  0
  172.9966  147.8040  121.0883 C   0  0  0  0  0  0  0  0  0  0  0  0
  173.9171  146.9035  121.8030 C   0  0  2  0  0  0  0  0  0  0  0  0
  173.8858  145.4987  121.2036 C   0  0  0  0  0  0  0  0  0  0  0  0
  173.7110  146.7867  123.2882 C   0  0  2  0  0  0  0  0  0  0  0  0
  174.5771  145.7224  123.7804 C   0  0  0  0  0  0  0  0  0  0  0  0
  174.3736  144.9989  124.7861 O   0  0  0  0  0  0  0  0  0  0  0  0
  175.8043  145.4709  123.0306 C   0  0  0  0  0  0  0  0  0  0  0  0
  176.2089  146.2270  122.0158 C   0  0  0  0  0  0  0  0  0  0  0  0
  177.4650  145.8612  121.3474 C   0  0  2  0  0  0  0  0  0  0  0  0
  178.6851  146.1263  122.2405 C   0  0  0  0  0  0  0  0  0  0  0  0
  179.8623  145.3389  121.6901 C   0  0  2  0  0  0  0  0  0  0  0  0
  181.1385  145.8952  122.3215 C   0  0  0  0  0  0  0  0  0  0  0  0
  180.0020  145.5121  120.2021 C   0  0  0  0  0  0  0  0  0  0  0  0
  179.2184  146.7159  119.7908 C   0  0  0  0  0  0  0  0  0  0  0  0
  177.7138  146.5029  120.0360 C   0  0  1  0  0  0  0  0  0  0  0  0
  177.2552  145.5740  118.9175 C   0  0  0  0  0  0  0  0  0  0  0  0
  177.0841  147.8399  119.8677 C   0  0  0  0  0  0  0  0  0  0  0  0
  175.6117  147.7828  120.1822 C   0  0  0  0  0  0  0  0  0  0  0  0
  175.3619  147.3839  121.6316 C   0  0  1  0  0  0  0  0  0  0  0  0
  175.6347  148.6204  122.4596 C   0  0  0  0  0  0  0  0  0  0  0  0
  179.7574  143.9063  121.9964 C   0  0  0  0  0  0  0  0  0  0  0  0
  180.5022  142.9482  121.3142 O   0  0  0  0  0  0  0  0  0  0  0  0
  178.9854  143.4833  122.8938 O   0  0  0  0  0  0  0  0  0  0  0  0
  170.4087  148.4726  123.7876 C   0  0  0  0  0  0  0  0  0  0  0  0
  170.2010  149.9241  123.3180 C   0  0  0  0  0  0  0  0  0  0  0  0
  169.1785  147.7289  123.4566 C   0  0  0  0  0  0  0  0  0  0  0  0
  1  2  1  0
  2  3  2  0
  2  4  1  0
  5  4  1  1
  5  6  1  0
  6  7  1  0
  7  8  1  0
  8  9  1  6
  8 10  1  0
 10 11  1  6
 11 12  1  0
 12 13  1  0
 13 14  1  6
 13 15  1  0
 15 16  1  6
 16 17  2  0
 16 18  1  0
 18 19  2  0
 19 20  1  0
 20 21  1  1
 21 22  1  0
 22 23  1  1
 22 24  1  0
 24 25  1  0
 25 26  1  0
 26 27  1  6
 26 28  1  0
 28 29  1  0
 29 30  1  0
 30 31  1  1
 22 32  1  0
 32 33  1  0
 32 34  2  0
 10 35  1  0
 35 36  1  0
 35 37  1  0
 35  5  1  0
 15  8  1  0
 30 19  1  0
 30 13  1  0
 26 20  1  0
M  END
$$$$
