
     RDKit          3D

 37 41  0  0  0  0  0  0  0  0999 V2000
  175.3288  171.3447  107.4874 C   0  0  0  0  0  0  0  0  0  0  0  0
  173.8484  171.1196  107.4235 C   0  0  0  0  0  0  0  0  0  0  0  0
  173.1613  171.4069  106.4138 O   0  0  0  0  0  0  0  0  0  0  0  0
  173.1494  170.5755  108.4890 O   0  0  0  0  0  0  0  0  0  0  0  0
  173.3151  169.2680  108.9014 C   0  0  1  0  0  0  0  0  0  0  0  0
  173.3681  168.2411  107.8338 C   0  0  0  0  0  0  0  0  0  0  0  0
  173.2296  166.8536  108.4202 C   0  0  0  0  0  0  0  0  0  0  0  0
  174.2422  166.5732  109.5045 C   0  0  1  0  0  0  0  0  0  0  0  0
  175.5148  166.1618  108.8006 C   0  0  0  0  0  0  0  0  0  0  0  0
  174.4366  167.7522  110.4219 C   0  0  1  0  0  0  0  0  0  0  0  0
  175.5430  167.4489  111.4026 C   0  0  0  0  0  0  0  0  0  0  0  0
  175.1817  166.2733  112.2631 C   0  0  0  0  0  0  0  0  0  0  0  0
  174.5343  165.1437  111.5750 C   0  0  2  0  0  0  0  0  0  0  0  0
  175.5649  164.1046  111.1370 C   0  0  0  0  0  0  0  0  0  0  0  0
  173.6817  165.4918  110.3859 C   0  0  2  0  0  0  0  0  0  0  0  0
  173.2892  164.2484  109.7340 C   0  0  0  0  0  0  0  0  0  0  0  0
  173.0243  164.0948  108.5164 O   0  0  0  0  0  0  0  0  0  0  0  0
  173.1940  163.0620  110.5795 C   0  0  0  0  0  0  0  0  0  0  0  0
  173.3333  163.0925  111.9004 C   0  0  0  0  0  0  0  0  0  0  0  0
  173.2139  161.8236  112.6312 C   0  0  2  0  0  0  0  0  0  0  0  0
  171.7706  161.3008  112.6350 C   0  0  0  0  0  0  0  0  0  0  0  0
  171.7959  159.8258  112.9991 C   0  0  2  0  0  0  0  0  0  0  0  0
  170.3757  159.4101  113.3829 C   0  0  0  0  0  0  0  0  0  0  0  0
  172.6653  159.5625  114.1985 C   0  0  0  0  0  0  0  0  0  0  0  0
  172.8942  160.8566  114.9095 C   0  0  0  0  0  0  0  0  0  0  0  0
  173.6977  161.8322  114.0309 C   0  0  1  0  0  0  0  0  0  0  0  0
  175.1333  161.3212  114.0783 C   0  0  0  0  0  0  0  0  0  0  0  0
  173.6122  163.1521  114.7112 C   0  0  0  0  0  0  0  0  0  0  0  0
  174.2827  164.2230  113.8904 C   0  0  0  0  0  0  0  0  0  0  0  0
  173.6008  164.4052  112.5398 C   0  0  1  0  0  0  0  0  0  0  0  0
  172.3429  165.2015  112.8094 C   0  0  0  0  0  0  0  0  0  0  0  0
  172.2576  158.9912  111.8822 C   0  0  0  0  0  0  0  0  0  0  0  0
  172.5855  157.6486  112.0491 O   0  0  0  0  0  0  0  0  0  0  0  0
  172.3765  159.4583  110.7211 O   0  0  0  0  0  0  0  0  0  0  0  0
  174.5533  169.0795  109.7809 C   0  0  0  0  0  0  0  0  0  0  0  0
  174.3792  170.1190  110.9033 C   0  0  0  0  0  0  0  0  0  0  0  0
  175.8196  169.3924  109.0918 C   0  0  0  0  0  0  0  0  0  0  0  0
  1  2  1  0
  2  3  2  0
  2  4  1  0
  5  4  1  6
  5  6  1  0
  6  7  1  0
  7  8  1  0
  8  9  1  6
  8 10  1  0
 10 11  1  6
 11 12  1  0
 12 13  1  0
 13 14  1  6
 13 15  1  0
 15 16  1  6
 16 17  2  0
 16 18  1  0
 18 19  2  0
 19 20  1  0
 20 21  1  1
 21 22  1  0
 22 23  1  1
 22 24  1  0
 24 25  1  0
 25 26  1  0
 26 27  1  6
 26 28  1  0
 28 29  1  0
 29 30  1  0
 30 31  1  1
 22 32  1  0
 32 33  1  0
 32 34  2  0
 10 35  1  0
 35 36  1  0
 35 37  1  0
 35  5  1  0
 15  8  1  0
 30 19  1  0
 30 13  1  0
 26 20  1  0
M  END
$$$$
