
     RDKit          3D

 37 41  0  0  0  0  0  0  0  0999 V2000
  151.1501  164.5284  127.7685 C   0  0  0  0  0  0  0  0  0  0  0  0
  151.8026  165.4330  128.7696 C   0  0  0  0  0  0  0  0  0  0  0  0
  152.8870  166.0232  128.5455 O   0  0  0  0  0  0  0  0  0  0  0  0
  151.2371  165.6698  130.0122 O   0  0  0  0  0  0  0  0  0  0  0  0
  150.2702  166.6333  130.2214 C   0  0  1  0  0  0  0  0  0  0  0  0
  150.2095  167.7335  129.2299 C   0  0  0  0  0  0  0  0  0  0  0  0
  149.3450  168.8651  129.7401 C   0  0  0  0  0  0  0  0  0  0  0  0
  147.9628  168.4095  130.1422 C   0  0  1  0  0  0  0  0  0  0  0  0
  147.1499  168.3461  128.8696 C   0  0  0  0  0  0  0  0  0  0  0  0
  147.9879  167.0995  130.8856 C   0  0  1  0  0  0  0  0  0  0  0  0
  146.5733  166.6444  131.1498 C   0  0  0  0  0  0  0  0  0  0  0  0
  145.8516  167.6327  132.0188 C   0  0  0  0  0  0  0  0  0  0  0  0
  146.0771  169.0539  131.7057 C   0  0  2  0  0  0  0  0  0  0  0  0
  145.0040  169.5833  130.7559 C   0  0  0  0  0  0  0  0  0  0  0  0
  147.4245  169.4018  131.1351 C   0  0  2  0  0  0  0  0  0  0  0  0
  147.3895  170.7981  130.7178 C   0  0  0  0  0  0  0  0  0  0  0  0
  148.0684  171.3205  129.7999 O   0  0  0  0  0  0  0  0  0  0  0  0
  146.4745  171.6790  131.4377 C   0  0  0  0  0  0  0  0  0  0  0  0
  145.7781  171.2969  132.5027 C   0  0  0  0  0  0  0  0  0  0  0  0
  144.8924  172.2853  133.1327 C   0  0  2  0  0  0  0  0  0  0  0  0
  145.6852  173.3884  133.8477 C   0  0  0  0  0  0  0  0  0  0  0  0
  144.7595  174.5708  134.0794 C   0  0  2  0  0  0  0  0  0  0  0  0
  145.4137  175.4865  135.1140 C   0  0  0  0  0  0  0  0  0  0  0  0
  143.4376  174.1397  134.6542 C   0  0  0  0  0  0  0  0  0  0  0  0
  143.5904  172.7604  135.2080 C   0  0  0  0  0  0  0  0  0  0  0  0
  143.8965  171.7491  134.0887 C   0  0  1  0  0  0  0  0  0  0  0  0
  142.5677  171.5315  133.3737 C   0  0  0  0  0  0  0  0  0  0  0  0
  144.3065  170.4963  134.7777 C   0  0  0  0  0  0  0  0  0  0  0  0
  144.7312  169.4499  133.7802 C   0  0  0  0  0  0  0  0  0  0  0  0
  145.9451  169.9000  132.9762 C   0  0  1  0  0  0  0  0  0  0  0  0
  147.1404  169.7203  133.8861 C   0  0  0  0  0  0  0  0  0  0  0  0
  144.5188  175.3310  132.8459 C   0  0  0  0  0  0  0  0  0  0  0  0
  145.0385  174.9311  131.6180 O   0  0  0  0  0  0  0  0  0  0  0  0
  143.8286  176.3817  132.8483 O   0  0  0  0  0  0  0  0  0  0  0  0
  148.8634  166.0419  130.3368 C   0  0  0  0  0  0  0  0  0  0  0  0
  148.9938  164.9735  131.4378 C   0  0  0  0  0  0  0  0  0  0  0  0
  148.4113  165.3522  129.1137 C   0  0  0  0  0  0  0  0  0  0  0  0
  1  2  1  0
  2  3  2  0
  2  4  1  0
  5  4  1  6
  5  6  1  0
  6  7  1  0
  7  8  1  0
  8  9  1  6
  8 10  1  0
 10 11  1  6
 11 12  1  0
 12 13  1  0
 13 14  1  6
 13 15  1  0
 15 16  1  6
 16 17  2  0
 16 18  1  0
 18 19  2  0
 19 20  1  0
 20 21  1  1
 21 22  1  0
 22 23  1  1
 22 24  1  0
 24 25  1  0
 25 26  1  0
 26 27  1  6
 26 28  1  0
 28 29  1  0
 29 30  1  0
 30 31  1  1
 22 32  1  0
 32 33  1  0
 32 34  2  0
 10 35  1  0
 35 36  1  0
 35 37  1  0
 35  5  1  0
 15  8  1  0
 30 19  1  0
 30 13  1  0
 26 20  1  0
M  END
$$$$
