
     RDKit          3D

 37 41  0  0  0  0  0  0  0  0999 V2000
  178.5194  137.2964  134.4798 C   0  0  0  0  0  0  0  0  0  0  0  0
  177.7128  137.8578  133.3482 C   0  0  0  0  0  0  0  0  0  0  0  0
  176.8383  137.1923  132.7426 O   0  0  0  0  0  0  0  0  0  0  0  0
  177.8909  139.1581  132.9038 O   0  0  0  0  0  0  0  0  0  0  0  0
  179.0142  139.5630  132.2101 C   0  0  1  0  0  0  0  0  0  0  0  0
  180.3184  139.3401  132.8783 C   0  0  0  0  0  0  0  0  0  0  0  0
  181.4173  140.1035  132.1727 C   0  0  0  0  0  0  0  0  0  0  0  0
  181.4935  139.7894  130.6978 C   0  0  1  0  0  0  0  0  0  0  0  0
  182.2886  138.5097  130.5770 C   0  0  0  0  0  0  0  0  0  0  0  0
  180.1303  139.6927  130.0641 C   0  0  1  0  0  0  0  0  0  0  0  0
  180.2743  139.2597  128.6255 C   0  0  0  0  0  0  0  0  0  0  0  0
  181.0557  140.2737  127.8419 C   0  0  0  0  0  0  0  0  0  0  0  0
  182.2337  140.8439  128.5171 C   0  0  2  0  0  0  0  0  0  0  0  0
  183.4990  140.0632  128.1656 C   0  0  0  0  0  0  0  0  0  0  0  0
  182.1504  140.9565  130.0145 C   0  0  2  0  0  0  0  0  0  0  0  0
  183.4619  141.3565  130.5095 C   0  0  0  0  0  0  0  0  0  0  0  0
  183.9459  141.0949  131.6380 O   0  0  0  0  0  0  0  0  0  0  0  0
  184.2978  142.1396  129.6042 C   0  0  0  0  0  0  0  0  0  0  0  0
  183.8785  142.5881  128.4260 C   0  0  0  0  0  0  0  0  0  0  0  0
  184.8239  143.3649  127.6130 C   0  0  2  0  0  0  0  0  0  0  0  0
  185.0984  144.7473  128.2215 C   0  0  0  0  0  0  0  0  0  0  0  0
  186.3730  145.2982  127.6046 C   0  0  2  0  0  0  0  0  0  0  0  0
  186.4320  146.7964  127.9025 C   0  0  0  0  0  0  0  0  0  0  0  0
  186.3760  145.1520  126.1071 C   0  0  0  0  0  0  0  0  0  0  0  0
  184.9742  144.9034  125.6538 C   0  0  0  0  0  0  0  0  0  0  0  0
  184.4520  143.5595  126.1927 C   0  0  1  0  0  0  0  0  0  0  0  0
  185.1306  142.4960  125.3366 C   0  0  0  0  0  0  0  0  0  0  0  0
  182.9886  143.5591  125.9266 C   0  0  0  0  0  0  0  0  0  0  0  0
  182.3391  142.3274  126.5021 C   0  0  0  0  0  0  0  0  0  0  0  0
  182.4873  142.2701  128.0177 C   0  0  1  0  0  0  0  0  0  0  0  0
  181.4685  143.2398  128.5752 C   0  0  0  0  0  0  0  0  0  0  0  0
  187.5730  144.6504  128.1501 C   0  0  0  0  0  0  0  0  0  0  0  0
  188.1000  144.9963  129.3913 O   0  0  0  0  0  0  0  0  0  0  0  0
  188.1777  143.7503  127.5142 O   0  0  0  0  0  0  0  0  0  0  0  0
  179.1017  138.9409  130.8146 C   0  0  0  0  0  0  0  0  0  0  0  0
  177.7506  139.2878  130.1628 C   0  0  0  0  0  0  0  0  0  0  0  0
  179.2114  137.4699  130.8302 C   0  0  0  0  0  0  0  0  0  0  0  0
  1  2  1  0
  2  3  2  0
  2  4  1  0
  5  4  1  1
  5  6  1  0
  6  7  1  0
  7  8  1  0
  8  9  1  1
  8 10  1  0
 10 11  1  6
 11 12  1  0
 12 13  1  0
 13 14  1  1
 13 15  1  0
 15 16  1  1
 16 17  2  0
 16 18  1  0
 18 19  2  0
 19 20  1  0
 20 21  1  1
 21 22  1  0
 22 23  1  6
 22 24  1  0
 24 25  1  0
 25 26  1  0
 26 27  1  6
 26 28  1  0
 28 29  1  0
 29 30  1  0
 30 31  1  1
 22 32  1  0
 32 33  1  0
 32 34  2  0
 10 35  1  0
 35 36  1  0
 35 37  1  0
 35  5  1  0
 15  8  1  0
 30 19  1  0
 30 13  1  0
 26 20  1  0
M  END
$$$$
