
     RDKit          3D

 37 41  0  0  0  0  0  0  0  0999 V2000
  149.6597  168.8842  137.4995 C   0  0  0  0  0  0  0  0  0  0  0  0
  148.5930  167.8318  137.5292 C   0  0  0  0  0  0  0  0  0  0  0  0
  148.6204  166.8600  138.3224 O   0  0  0  0  0  0  0  0  0  0  0  0
  147.5052  167.8752  136.6720 O   0  0  0  0  0  0  0  0  0  0  0  0
  147.5937  167.5393  135.3355 C   0  0  1  0  0  0  0  0  0  0  0  0
  148.0023  166.1474  135.0305 C   0  0  0  0  0  0  0  0  0  0  0  0
  148.3663  166.0058  133.5692 C   0  0  0  0  0  0  0  0  0  0  0  0
  147.2672  166.4719  132.6449 C   0  0  1  0  0  0  0  0  0  0  0  0
  146.2953  165.3204  132.5268 C   0  0  0  0  0  0  0  0  0  0  0  0
  146.6145  167.7403  133.1290 C   0  0  1  0  0  0  0  0  0  0  0  0
  145.4518  168.0823  132.2296 C   0  0  0  0  0  0  0  0  0  0  0  0
  145.9224  168.3342  130.8268 C   0  0  0  0  0  0  0  0  0  0  0  0
  146.9492  167.4113  130.3142 C   0  0  2  0  0  0  0  0  0  0  0  0
  146.3122  166.2487  129.5550 C   0  0  0  0  0  0  0  0  0  0  0  0
  147.8996  166.8444  131.3328 C   0  0  2  0  0  0  0  0  0  0  0  0
  148.7056  165.8224  130.6765 C   0  0  0  0  0  0  0  0  0  0  0  0
  149.2279  164.8191  131.2214 O   0  0  0  0  0  0  0  0  0  0  0  0
  148.9292  165.9789  129.2422 C   0  0  0  0  0  0  0  0  0  0  0  0
  148.5369  167.0450  128.5533 C   0  0  0  0  0  0  0  0  0  0  0  0
  148.8257  167.0742  127.1131 C   0  0  2  0  0  0  0  0  0  0  0  0
  150.3255  167.2475  126.8352 C   0  0  0  0  0  0  0  0  0  0  0  0
  150.5981  166.8321  125.3992 C   0  0  2  0  0  0  0  0  0  0  0  0
  151.9767  167.3643  125.0078 C   0  0  0  0  0  0  0  0  0  0  0  0
  149.6088  167.4434  124.4447 C   0  0  0  0  0  0  0  0  0  0  0  0
  148.9342  168.5864  125.1309 C   0  0  0  0  0  0  0  0  0  0  0  0
  148.0967  168.0943  126.3250 C   0  0  1  0  0  0  0  0  0  0  0  0
  146.8512  167.4687  125.7073 C   0  0  0  0  0  0  0  0  0  0  0  0
  147.7202  169.3163  127.0848 C   0  0  0  0  0  0  0  0  0  0  0  0
  146.9744  168.9566  128.3436 C   0  0  0  0  0  0  0  0  0  0  0  0
  147.8348  168.1266  129.2887 C   0  0  1  0  0  0  0  0  0  0  0  0
  148.7800  169.0996  129.9585 C   0  0  0  0  0  0  0  0  0  0  0  0
  150.5803  165.3726  125.2358 C   0  0  0  0  0  0  0  0  0  0  0  0
  150.0443  164.5271  126.2032 O   0  0  0  0  0  0  0  0  0  0  0  0
  151.0517  164.8228  124.2083 O   0  0  0  0  0  0  0  0  0  0  0  0
  146.2966  167.8142  134.5711 C   0  0  0  0  0  0  0  0  0  0  0  0
  145.9894  169.2928  134.8714 C   0  0  0  0  0  0  0  0  0  0  0  0
  145.1481  167.0251  135.0551 C   0  0  0  0  0  0  0  0  0  0  0  0
  1  2  1  0
  2  3  2  0
  2  4  1  0
  5  4  1  1
  5  6  1  0
  6  7  1  0
  7  8  1  0
  8  9  1  6
  8 10  1  0
 10 11  1  6
 11 12  1  0
 12 13  1  0
 13 14  1  6
 13 15  1  0
 15 16  1  6
 16 17  2  0
 16 18  1  0
 18 19  2  0
 19 20  1  0
 20 21  1  1
 21 22  1  0
 22 23  1  6
 22 24  1  0
 24 25  1  0
 25 26  1  0
 26 27  1  6
 26 28  1  0
 28 29  1  0
 29 30  1  0
 30 31  1  1
 22 32  1  0
 32 33  1  0
 32 34  2  0
 10 35  1  0
 35 36  1  0
 35 37  1  0
 35  5  1  0
 15  8  1  0
 30 19  1  0
 30 13  1  0
 26 20  1  0
M  END
$$$$
