
     RDKit          3D

 37 41  0  0  0  0  0  0  0  0999 V2000
  148.6996  172.0059  135.8286 C   0  0  0  0  0  0  0  0  0  0  0  0
  148.3740  173.0433  134.7970 C   0  0  0  0  0  0  0  0  0  0  0  0
  148.4949  174.2738  135.0103 O   0  0  0  0  0  0  0  0  0  0  0  0
  147.9161  172.6958  133.5362 O   0  0  0  0  0  0  0  0  0  0  0  0
  148.1973  171.4780  132.9489 C   0  0  1  0  0  0  0  0  0  0  0  0
  149.3746  170.7476  133.4755 C   0  0  0  0  0  0  0  0  0  0  0  0
  149.7549  169.6112  132.5523 C   0  0  0  0  0  0  0  0  0  0  0  0
  148.6045  168.6737  132.2742 C   0  0  1  0  0  0  0  0  0  0  0  0
  148.5431  167.7187  133.4440 C   0  0  0  0  0  0  0  0  0  0  0  0
  147.3093  169.4103  132.0524 C   0  0  1  0  0  0  0  0  0  0  0  0
  146.1846  168.4153  131.9012 C   0  0  0  0  0  0  0  0  0  0  0  0
  146.4075  167.5409  130.7018 C   0  0  0  0  0  0  0  0  0  0  0  0
  147.7866  167.0675  130.4947 C   0  0  2  0  0  0  0  0  0  0  0  0
  147.9991  165.6984  131.1383 C   0  0  0  0  0  0  0  0  0  0  0  0
  148.8809  167.9850  130.9667 C   0  0  2  0  0  0  0  0  0  0  0  0
  150.1469  167.2713  130.8531 C   0  0  0  0  0  0  0  0  0  0  0  0
  151.1724  167.4533  131.5540 O   0  0  0  0  0  0  0  0  0  0  0  0
  150.2332  166.2414  129.8218 C   0  0  0  0  0  0  0  0  0  0  0  0
  149.2724  166.0150  128.9325 C   0  0  0  0  0  0  0  0  0  0  0  0
  149.4884  164.9462  127.9480 C   0  0  2  0  0  0  0  0  0  0  0  0
  150.5681  165.3233  126.9239 C   0  0  0  0  0  0  0  0  0  0  0  0
  151.0438  164.0530  126.2391 C   0  0  2  0  0  0  0  0  0  0  0  0
  151.8082  164.4550  124.9777 C   0  0  0  0  0  0  0  0  0  0  0  0
  149.8913  163.1943  125.7941 C   0  0  0  0  0  0  0  0  0  0  0  0
  148.6549  164.0331  125.7802 C   0  0  0  0  0  0  0  0  0  0  0  0
  148.2902  164.4991  127.2011 C   0  0  1  0  0  0  0  0  0  0  0  0
  147.6923  163.2728  127.8816 C   0  0  0  0  0  0  0  0  0  0  0  0
  147.2406  165.5387  127.0281 C   0  0  0  0  0  0  0  0  0  0  0  0
  146.8669  166.1495  128.3538 C   0  0  0  0  0  0  0  0  0  0  0  0
  148.0517  166.8569  129.0003 C   0  0  1  0  0  0  0  0  0  0  0  0
  148.1992  168.1761  128.2743 C   0  0  0  0  0  0  0  0  0  0  0  0
  151.9252  163.2584  127.1045 C   0  0  0  0  0  0  0  0  0  0  0  0
  151.6760  163.0972  128.4646 O   0  0  0  0  0  0  0  0  0  0  0  0
  152.9483  162.6870  126.6494 O   0  0  0  0  0  0  0  0  0  0  0  0
  147.0071  170.5167  132.9857 C   0  0  0  0  0  0  0  0  0  0  0  0
  145.8567  171.3179  132.3490 C   0  0  0  0  0  0  0  0  0  0  0  0
  146.5816  170.1566  134.3515 C   0  0  0  0  0  0  0  0  0  0  0  0
  1  2  1  0
  2  3  2  0
  2  4  1  0
  5  4  1  1
  5  6  1  0
  6  7  1  0
  7  8  1  0
  8  9  1  1
  8 10  1  0
 10 11  1  1
 11 12  1  0
 12 13  1  0
 13 14  1  1
 13 15  1  0
 15 16  1  1
 16 17  2  0
 16 18  1  0
 18 19  2  0
 19 20  1  0
 20 21  1  6
 21 22  1  0
 22 23  1  6
 22 24  1  0
 24 25  1  0
 25 26  1  0
 26 27  1  1
 26 28  1  0
 28 29  1  0
 29 30  1  0
 30 31  1  6
 22 32  1  0
 32 33  1  0
 32 34  2  0
 10 35  1  0
 35 36  1  0
 35 37  1  0
 35  5  1  0
 15  8  1  0
 30 19  1  0
 30 13  1  0
 26 20  1  0
M  END
$$$$
