
     RDKit          3D

 37 41  0  0  0  0  0  0  0  0999 V2000
  104.6187  171.0043  160.9070 C   0  0  0  0  0  0  0  0  0  0  0  0
  103.9008  170.0616  161.8248 C   0  0  0  0  0  0  0  0  0  0  0  0
  103.3360  170.4396  162.8795 O   0  0  0  0  0  0  0  0  0  0  0  0
  103.8207  168.7048  161.5552 O   0  0  0  0  0  0  0  0  0  0  0  0
  104.1509  168.1665  160.3272 C   0  0  1  0  0  0  0  0  0  0  0  0
  103.7220  168.9336  159.1336 C   0  0  0  0  0  0  0  0  0  0  0  0
  103.8571  168.0941  157.8824 C   0  0  0  0  0  0  0  0  0  0  0  0
  105.2460  167.5296  157.7042 C   0  0  1  0  0  0  0  0  0  0  0  0
  106.0720  168.6262  157.0721 C   0  0  0  0  0  0  0  0  0  0  0  0
  105.8299  167.0314  159.0004 C   0  0  1  0  0  0  0  0  0  0  0  0
  107.2566  166.5945  158.7740 C   0  0  0  0  0  0  0  0  0  0  0  0
  107.3144  165.4570  157.7965 C   0  0  0  0  0  0  0  0  0  0  0  0
  106.4270  165.5651  156.6263 C   0  0  2  0  0  0  0  0  0  0  0  0
  107.1537  166.2031  155.4436 C   0  0  0  0  0  0  0  0  0  0  0  0
  105.1348  166.3046  156.8396 C   0  0  2  0  0  0  0  0  0  0  0  0
  104.4917  166.4705  155.5420 C   0  0  0  0  0  0  0  0  0  0  0  0
  103.7125  167.3965  155.2076 O   0  0  0  0  0  0  0  0  0  0  0  0
  104.7810  165.4603  154.5284 C   0  0  0  0  0  0  0  0  0  0  0  0
  105.4936  164.3654  154.7701 C   0  0  0  0  0  0  0  0  0  0  0  0
  105.7101  163.4298  153.6583 C   0  0  2  0  0  0  0  0  0  0  0  0
  104.4186  162.6971  153.2691 C   0  0  0  0  0  0  0  0  0  0  0  0
  104.6014  162.1081  151.8804 C   0  0  2  0  0  0  0  0  0  0  0  0
  103.4997  161.0716  151.6588 C   0  0  0  0  0  0  0  0  0  0  0  0
  105.9133  161.3829  151.7506 C   0  0  0  0  0  0  0  0  0  0  0  0
  106.4362  161.1032  153.1220 C   0  0  0  0  0  0  0  0  0  0  0  0
  106.7663  162.4118  153.8623 C   0  0  1  0  0  0  0  0  0  0  0  0
  108.0723  162.9001  153.2459 C   0  0  0  0  0  0  0  0  0  0  0  0
  106.9941  162.0266  155.2808 C   0  0  0  0  0  0  0  0  0  0  0  0
  107.2307  163.2444  156.1359 C   0  0  0  0  0  0  0  0  0  0  0  0
  106.0193  164.1689  156.1444 C   0  0  1  0  0  0  0  0  0  0  0  0
  105.0139  163.5337  157.0795 C   0  0  0  0  0  0  0  0  0  0  0  0
  104.5168  163.1335  150.8323 C   0  0  0  0  0  0  0  0  0  0  0  0
  104.2316  164.4649  151.1223 O   0  0  0  0  0  0  0  0  0  0  0  0
  104.6997  162.8492  149.6216 O   0  0  0  0  0  0  0  0  0  0  0  0
  105.6508  167.8979  160.1850 C   0  0  0  0  0  0  0  0  0  0  0  0
  105.9957  167.0321  161.4106 C   0  0  0  0  0  0  0  0  0  0  0  0
  106.4787  169.1162  160.2672 C   0  0  0  0  0  0  0  0  0  0  0  0
  1  2  1  0
  2  3  2  0
  2  4  1  0
  5  4  1  1
  5  6  1  0
  6  7  1  0
  7  8  1  0
  8  9  1  6
  8 10  1  0
 10 11  1  6
 11 12  1  0
 12 13  1  0
 13 14  1  6
 13 15  1  0
 15 16  1  6
 16 17  2  0
 16 18  1  0
 18 19  2  0
 19 20  1  0
 20 21  1  1
 21 22  1  0
 22 23  1  6
 22 24  1  0
 24 25  1  0
 25 26  1  0
 26 27  1  6
 26 28  1  0
 28 29  1  0
 29 30  1  0
 30 31  1  1
 22 32  1  0
 32 33  1  0
 32 34  2  0
 10 35  1  0
 35 36  1  0
 35 37  1  0
 35  5  1  0
 15  8  1  0
 30 19  1  0
 30 13  1  0
 26 20  1  0
M  END
$$$$
