
     RDKit          3D

 37 41  0  0  0  0  0  0  0  0999 V2000
  173.8643  164.0906  106.2469 C   0  0  0  0  0  0  0  0  0  0  0  0
  172.6488  164.7645  106.8079 C   0  0  0  0  0  0  0  0  0  0  0  0
  171.5237  164.7040  106.2557 O   0  0  0  0  0  0  0  0  0  0  0  0
  172.7018  165.4998  107.9811 O   0  0  0  0  0  0  0  0  0  0  0  0
  172.7609  164.9118  109.2291 C   0  0  1  0  0  0  0  0  0  0  0  0
  171.5701  164.1359  109.6501 C   0  0  0  0  0  0  0  0  0  0  0  0
  171.6317  163.8236  111.1290 C   0  0  0  0  0  0  0  0  0  0  0  0
  172.9112  163.1277  111.5269 C   0  0  1  0  0  0  0  0  0  0  0  0
  172.7125  161.6625  111.2134 C   0  0  0  0  0  0  0  0  0  0  0  0
  174.1168  163.7141  110.8399 C   0  0  1  0  0  0  0  0  0  0  0  0
  175.3389  162.8992  111.1868 C   0  0  0  0  0  0  0  0  0  0  0  0
  175.6051  162.9443  112.6632 C   0  0  0  0  0  0  0  0  0  0  0  0
  174.4246  162.8322  113.5363 C   0  0  2  0  0  0  0  0  0  0  0  0
  174.1801  161.3805  113.9447 C   0  0  0  0  0  0  0  0  0  0  0  0
  173.1395  163.3904  112.9894 C   0  0  2  0  0  0  0  0  0  0  0  0
  172.0639  163.0199  113.9009 C   0  0  0  0  0  0  0  0  0  0  0  0
  170.8566  162.8496  113.6014 O   0  0  0  0  0  0  0  0  0  0  0  0
  172.4242  162.8269  115.3025 C   0  0  0  0  0  0  0  0  0  0  0  0
  173.6345  163.0811  115.7879 C   0  0  0  0  0  0  0  0  0  0  0  0
  173.8623  162.8424  117.2195 C   0  0  2  0  0  0  0  0  0  0  0  0
  173.1220  163.8646  118.0934 C   0  0  0  0  0  0  0  0  0  0  0  0
  173.0343  163.3128  119.5065 C   0  0  2  0  0  0  0  0  0  0  0  0
  172.6627  164.4647  120.4404 C   0  0  0  0  0  0  0  0  0  0  0  0
  174.3590  162.7792  119.9799 C   0  0  0  0  0  0  0  0  0  0  0  0
  175.4323  163.3285  119.0975 C   0  0  0  0  0  0  0  0  0  0  0  0
  175.2773  162.8118  117.6558 C   0  0  1  0  0  0  0  0  0  0  0  0
  175.7689  161.3692  117.6944 C   0  0  0  0  0  0  0  0  0  0  0  0
  176.2013  163.6349  116.8305 C   0  0  0  0  0  0  0  0  0  0  0  0
  176.0679  163.2894  115.3700 C   0  0  0  0  0  0  0  0  0  0  0  0
  174.6670  163.5856  114.8483 C   0  0  1  0  0  0  0  0  0  0  0  0
  174.6036  165.0834  114.6448 C   0  0  0  0  0  0  0  0  0  0  0  0
  172.0238  162.2533  119.6217 C   0  0  0  0  0  0  0  0  0  0  0  0
  172.3678  160.9048  119.6588 O   0  0  0  0  0  0  0  0  0  0  0  0
  170.7978  162.5223  119.6922 O   0  0  0  0  0  0  0  0  0  0  0  0
  173.9820  164.0045  109.3964 C   0  0  0  0  0  0  0  0  0  0  0  0
  175.1736  164.9052  109.0230 C   0  0  0  0  0  0  0  0  0  0  0  0
  173.9966  162.8580  108.4682 C   0  0  0  0  0  0  0  0  0  0  0  0
  1  2  1  0
  2  3  2  0
  2  4  1  0
  5  4  1  6
  5  6  1  0
  6  7  1  0
  7  8  1  0
  8  9  1  1
  8 10  1  0
 10 11  1  6
 11 12  1  0
 12 13  1  0
 13 14  1  1
 13 15  1  0
 15 16  1  1
 16 17  2  0
 16 18  1  0
 18 19  2  0
 19 20  1  0
 20 21  1  1
 21 22  1  0
 22 23  1  1
 22 24  1  0
 24 25  1  0
 25 26  1  0
 26 27  1  1
 26 28  1  0
 28 29  1  0
 29 30  1  0
 30 31  1  6
 22 32  1  0
 32 33  1  0
 32 34  2  0
 10 35  1  0
 35 36  1  0
 35 37  1  0
 35  5  1  0
 15  8  1  0
 30 19  1  0
 30 13  1  0
 26 20  1  0
M  END
$$$$
