
     RDKit          3D

 37 41  0  0  0  0  0  0  0  0999 V2000
  148.3342  172.5907  135.6349 C   0  0  0  0  0  0  0  0  0  0  0  0
  148.6426  173.5836  134.5554 C   0  0  0  0  0  0  0  0  0  0  0  0
  149.1158  174.7208  134.7944 O   0  0  0  0  0  0  0  0  0  0  0  0
  148.4192  173.2964  133.2184 O   0  0  0  0  0  0  0  0  0  0  0  0
  148.5514  172.0252  132.6953 C   0  0  1  0  0  0  0  0  0  0  0  0
  149.6796  171.2136  133.2107 C   0  0  0  0  0  0  0  0  0  0  0  0
  149.9004  169.9943  132.3430 C   0  0  0  0  0  0  0  0  0  0  0  0
  148.6526  169.1604  132.1779 C   0  0  1  0  0  0  0  0  0  0  0  0
  148.5618  168.2846  133.4064 C   0  0  0  0  0  0  0  0  0  0  0  0
  147.4239  170.0072  131.9716 C   0  0  1  0  0  0  0  0  0  0  0  0
  146.2029  169.1208  131.9352 C   0  0  0  0  0  0  0  0  0  0  0  0
  146.2778  168.1615  130.7833 C   0  0  0  0  0  0  0  0  0  0  0  0
  147.5925  167.5434  130.5417 C   0  0  2  0  0  0  0  0  0  0  0  0
  147.7067  166.1991  131.2586 C   0  0  0  0  0  0  0  0  0  0  0  0
  148.7928  168.3740  130.9042 C   0  0  2  0  0  0  0  0  0  0  0  0
  149.9770  167.5336  130.7760 C   0  0  0  0  0  0  0  0  0  0  0  0
  151.0507  167.6535  131.4156 O   0  0  0  0  0  0  0  0  0  0  0  0
  149.9101  166.4429  129.8078 C   0  0  0  0  0  0  0  0  0  0  0  0
  148.8866  166.2617  128.9802 C   0  0  0  0  0  0  0  0  0  0  0  0
  148.9474  165.1222  128.0549 C   0  0  2  0  0  0  0  0  0  0  0  0
  150.0028  165.3317  126.9600 C   0  0  0  0  0  0  0  0  0  0  0  0
  150.3183  163.9836  126.3340 C   0  0  2  0  0  0  0  0  0  0  0  0
  151.0501  164.2354  125.0157 C   0  0  0  0  0  0  0  0  0  0  0  0
  149.0671  163.2187  125.9977 C   0  0  0  0  0  0  0  0  0  0  0  0
  147.9176  164.1731  125.9894 C   0  0  0  0  0  0  0  0  0  0  0  0
  147.6743  164.7534  127.3942 C   0  0  1  0  0  0  0  0  0  0  0  0
  146.9986  163.6330  128.1767 C   0  0  0  0  0  0  0  0  0  0  0  0
  146.7212  165.8797  127.2062 C   0  0  0  0  0  0  0  0  0  0  0  0
  146.4779  166.5993  128.5074 C   0  0  0  0  0  0  0  0  0  0  0  0
  147.7573  167.2224  129.0526 C   0  0  1  0  0  0  0  0  0  0  0  0
  147.9919  168.4768  128.2400 C   0  0  0  0  0  0  0  0  0  0  0  0
  151.1640  163.1569  127.2049 C   0  0  0  0  0  0  0  0  0  0  0  0
  151.2974  161.7838  127.0183 O   0  0  0  0  0  0  0  0  0  0  0  0
  151.8068  163.6588  128.1616 O   0  0  0  0  0  0  0  0  0  0  0  0
  147.2783  171.1895  132.8474 C   0  0  0  0  0  0  0  0  0  0  0  0
  146.1779  172.0625  132.2167 C   0  0  0  0  0  0  0  0  0  0  0  0
  146.8928  170.9520  134.2513 C   0  0  0  0  0  0  0  0  0  0  0  0
  1  2  1  0
  2  3  2  0
  2  4  1  0
  5  4  1  1
  5  6  1  0
  6  7  1  0
  7  8  1  0
  8  9  1  1
  8 10  1  0
 10 11  1  1
 11 12  1  0
 12 13  1  0
 13 14  1  1
 13 15  1  0
 15 16  1  1
 16 17  2  0
 16 18  1  0
 18 19  2  0
 19 20  1  0
 20 21  1  6
 21 22  1  0
 22 23  1  6
 22 24  1  0
 24 25  1  0
 25 26  1  0
 26 27  1  1
 26 28  1  0
 28 29  1  0
 29 30  1  0
 30 31  1  6
 22 32  1  0
 32 33  1  0
 32 34  2  0
 10 35  1  0
 35 36  1  0
 35 37  1  0
 35  5  1  0
 15  8  1  0
 30 19  1  0
 30 13  1  0
 26 20  1  0
M  END
$$$$
