
     RDKit          3D

 37 41  0  0  0  0  0  0  0  0999 V2000
  108.3706  158.6175  157.7601 C   0  0  0  0  0  0  0  0  0  0  0  0
  108.7436  159.5494  156.6471 C   0  0  0  0  0  0  0  0  0  0  0  0
  109.8171  159.4456  156.0061 O   0  0  0  0  0  0  0  0  0  0  0  0
  107.9131  160.5892  156.2608 O   0  0  0  0  0  0  0  0  0  0  0  0
  107.8564  161.7910  156.9385 C   0  0  1  0  0  0  0  0  0  0  0  0
  108.1325  161.7416  158.3940 C   0  0  0  0  0  0  0  0  0  0  0  0
  107.7296  163.0394  159.0584 C   0  0  0  0  0  0  0  0  0  0  0  0
  108.3691  164.2477  158.4174 C   0  0  1  0  0  0  0  0  0  0  0  0
  109.7544  164.3597  159.0114 C   0  0  0  0  0  0  0  0  0  0  0  0
  108.3835  164.1552  156.9139 C   0  0  1  0  0  0  0  0  0  0  0  0
  109.1403  165.3306  156.3452 C   0  0  0  0  0  0  0  0  0  0  0  0
  108.4626  166.6212  156.7028 C   0  0  0  0  0  0  0  0  0  0  0  0
  107.9539  166.7236  158.0810 C   0  0  2  0  0  0  0  0  0  0  0  0
  108.9852  167.3767  158.9995 C   0  0  0  0  0  0  0  0  0  0  0  0
  107.5021  165.4384  158.7186 C   0  0  2  0  0  0  0  0  0  0  0  0
  107.2183  165.7082  160.1227 C   0  0  0  0  0  0  0  0  0  0  0  0
  107.2987  164.8898  161.0715 O   0  0  0  0  0  0  0  0  0  0  0  0
  106.7983  167.0646  160.4621 C   0  0  0  0  0  0  0  0  0  0  0  0
  106.5593  168.0046  159.5540 C   0  0  0  0  0  0  0  0  0  0  0  0
  106.1426  169.3295  160.0331 C   0  0  2  0  0  0  0  0  0  0  0  0
  104.7224  169.3052  160.6152 C   0  0  0  0  0  0  0  0  0  0  0  0
  104.5325  170.5483  161.4681 C   0  0  2  0  0  0  0  0  0  0  0  0
  103.0348  170.7245  161.7184 C   0  0  0  0  0  0  0  0  0  0  0  0
  105.0038  171.7885  160.7585 C   0  0  0  0  0  0  0  0  0  0  0  0
  105.1183  171.4839  159.3002 C   0  0  0  0  0  0  0  0  0  0  0  0
  106.2089  170.4287  159.0427 C   0  0  1  0  0  0  0  0  0  0  0  0
  107.5296  171.1749  159.1955 C   0  0  0  0  0  0  0  0  0  0  0  0
  106.0335  170.0038  157.6281 C   0  0  0  0  0  0  0  0  0  0  0  0
  106.9877  168.8908  157.2802 C   0  0  0  0  0  0  0  0  0  0  0  0
  106.7324  167.6476  158.1236 C   0  0  1  0  0  0  0  0  0  0  0  0
  105.5133  166.9793  157.5268 C   0  0  0  0  0  0  0  0  0  0  0  0
  105.2278  170.4424  162.7575 C   0  0  0  0  0  0  0  0  0  0  0  0
  105.1273  171.4289  163.7346 O   0  0  0  0  0  0  0  0  0  0  0  0
  105.9475  169.4495  163.0339 O   0  0  0  0  0  0  0  0  0  0  0  0
  108.7766  162.8535  156.3331 C   0  0  0  0  0  0  0  0  0  0  0  0
  108.3700  162.9015  154.8488 C   0  0  0  0  0  0  0  0  0  0  0  0
  110.2060  162.4921  156.3803 C   0  0  0  0  0  0  0  0  0  0  0  0
  1  2  1  0
  2  3  2  0
  2  4  1  0
  5  4  1  6
  5  6  1  0
  6  7  1  0
  7  8  1  0
  8  9  1  1
  8 10  1  0
 10 11  1  6
 11 12  1  0
 12 13  1  0
 13 14  1  1
 13 15  1  0
 15 16  1  1
 16 17  2  0
 16 18  1  0
 18 19  2  0
 19 20  1  0
 20 21  1  6
 21 22  1  0
 22 23  1  1
 22 24  1  0
 24 25  1  0
 25 26  1  0
 26 27  1  6
 26 28  1  0
 28 29  1  0
 29 30  1  0
 30 31  1  6
 22 32  1  0
 32 33  1  0
 32 34  2  0
 10 35  1  0
 35 36  1  0
 35 37  1  0
 35  5  1  0
 15  8  1  0
 30 19  1  0
 30 13  1  0
 26 20  1  0
M  END
$$$$
