
     RDKit          3D

 37 41  0  0  0  0  0  0  0  0999 V2000
  172.7972  158.0891  114.1855 C   0  0  0  0  0  0  0  0  0  0  0  0
  174.1878  157.8013  113.7062 C   0  0  0  0  0  0  0  0  0  0  0  0
  174.8006  156.7456  113.9961 O   0  0  0  0  0  0  0  0  0  0  0  0
  174.8808  158.6964  112.9070 O   0  0  0  0  0  0  0  0  0  0  0  0
  174.4090  159.9622  112.6206 C   0  0  1  0  0  0  0  0  0  0  0  0
  172.9594  160.0767  112.3329 C   0  0  0  0  0  0  0  0  0  0  0  0
  172.6394  161.4274  111.7317 C   0  0  0  0  0  0  0  0  0  0  0  0
  173.1241  162.5762  112.5832 C   0  0  1  0  0  0  0  0  0  0  0  0
  172.0729  162.7878  113.6484 C   0  0  0  0  0  0  0  0  0  0  0  0
  174.4941  162.3231  113.1561 C   0  0  1  0  0  0  0  0  0  0  0  0
  174.8650  163.4501  114.0889 C   0  0  0  0  0  0  0  0  0  0  0  0
  174.9292  164.7534  113.3472 C   0  0  0  0  0  0  0  0  0  0  0  0
  173.8599  164.9898  112.3626 C   0  0  2  0  0  0  0  0  0  0  0  0
  172.7008  165.7647  112.9870 C   0  0  0  0  0  0  0  0  0  0  0  0
  173.2999  163.7692  111.6854 C   0  0  2  0  0  0  0  0  0  0  0  0
  172.1412  164.1807  110.9024 C   0  0  0  0  0  0  0  0  0  0  0  0
  171.1473  163.4715  110.6101 O   0  0  0  0  0  0  0  0  0  0  0  0
  172.1335  165.5542  110.4077 C   0  0  0  0  0  0  0  0  0  0  0  0
  173.1622  166.3846  110.5396 C   0  0  0  0  0  0  0  0  0  0  0  0
  173.0211  167.7418  109.9952 C   0  0  2  0  0  0  0  0  0  0  0  0
  173.0109  167.7429  108.4601 C   0  0  0  0  0  0  0  0  0  0  0  0
  172.4318  169.0651  107.9855 C   0  0  2  0  0  0  0  0  0  0  0  0
  172.7784  169.2277  106.5055 C   0  0  0  0  0  0  0  0  0  0  0  0
  173.0460  170.2338  108.7069 C   0  0  0  0  0  0  0  0  0  0  0  0
  174.3138  169.7774  109.3525 C   0  0  0  0  0  0  0  0  0  0  0  0
  174.0293  168.7296  110.4436 C   0  0  1  0  0  0  0  0  0  0  0  0
  173.4782  169.5224  111.6235 C   0  0  0  0  0  0  0  0  0  0  0  0
  175.3518  168.1507  110.8019 C   0  0  0  0  0  0  0  0  0  0  0  0
  175.1951  167.0323  111.7993 C   0  0  0  0  0  0  0  0  0  0  0  0
  174.3768  165.8806  111.2282 C   0  0  1  0  0  0  0  0  0  0  0  0
  175.3078  165.1203  110.3094 C   0  0  0  0  0  0  0  0  0  0  0  0
  170.9730  169.1167  108.1477 C   0  0  0  0  0  0  0  0  0  0  0  0
  170.2690  170.3175  108.1262 O   0  0  0  0  0  0  0  0  0  0  0  0
  170.2951  168.0711  108.3138 O   0  0  0  0  0  0  0  0  0  0  0  0
  174.7405  160.9773  113.7169 C   0  0  0  0  0  0  0  0  0  0  0  0
  176.2650  160.8548  113.8943 C   0  0  0  0  0  0  0  0  0  0  0  0
  174.1249  160.6608  115.0196 C   0  0  0  0  0  0  0  0  0  0  0  0
  1  2  1  0
  2  3  2  0
  2  4  1  0
  5  4  1  1
  5  6  1  0
  6  7  1  0
  7  8  1  0
  8  9  1  1
  8 10  1  0
 10 11  1  1
 11 12  1  0
 12 13  1  0
 13 14  1  1
 13 15  1  0
 15 16  1  1
 16 17  2  0
 16 18  1  0
 18 19  2  0
 19 20  1  0
 20 21  1  6
 21 22  1  0
 22 23  1  6
 22 24  1  0
 24 25  1  0
 25 26  1  0
 26 27  1  1
 26 28  1  0
 28 29  1  0
 29 30  1  0
 30 31  1  6
 22 32  1  0
 32 33  1  0
 32 34  2  0
 10 35  1  0
 35 36  1  0
 35 37  1  0
 35  5  1  0
 15  8  1  0
 30 19  1  0
 30 13  1  0
 26 20  1  0
M  END
$$$$
