
     RDKit          3D

 37 41  0  0  0  0  0  0  0  0999 V2000
  149.1266  167.0438  124.5676 C   0  0  0  0  0  0  0  0  0  0  0  0
  149.5896  165.7269  125.1130 C   0  0  0  0  0  0  0  0  0  0  0  0
  150.4427  165.0137  124.5317 O   0  0  0  0  0  0  0  0  0  0  0  0
  149.0948  165.2189  126.3034 O   0  0  0  0  0  0  0  0  0  0  0  0
  149.0551  165.9556  127.4707 C   0  0  1  0  0  0  0  0  0  0  0  0
  150.1311  166.9584  127.6550 C   0  0  0  0  0  0  0  0  0  0  0  0
  150.1578  167.4566  129.0830 C   0  0  0  0  0  0  0  0  0  0  0  0
  148.8223  167.9917  129.5408 C   0  0  1  0  0  0  0  0  0  0  0  0
  148.7382  169.4131  129.0338 C   0  0  0  0  0  0  0  0  0  0  0  0
  147.6743  167.1356  129.0734 C   0  0  1  0  0  0  0  0  0  0  0  0
  146.3699  167.7890  129.4600 C   0  0  0  0  0  0  0  0  0  0  0  0
  146.2565  167.9053  130.9521 C   0  0  0  0  0  0  0  0  0  0  0  0
  147.4782  168.3191  131.6626 C   0  0  2  0  0  0  0  0  0  0  0  0
  147.5098  169.8332  131.8636 C   0  0  0  0  0  0  0  0  0  0  0  0
  148.7817  167.8991  131.0409 C   0  0  2  0  0  0  0  0  0  0  0  0
  149.8602  168.5545  131.7705 C   0  0  0  0  0  0  0  0  0  0  0  0
  150.9870  168.8689  131.3147 O   0  0  0  0  0  0  0  0  0  0  0  0
  149.6070  168.8787  133.1713 C   0  0  0  0  0  0  0  0  0  0  0  0
  148.5091  168.5073  133.8208 C   0  0  0  0  0  0  0  0  0  0  0  0
  148.3809  168.9010  135.2303 C   0  0  2  0  0  0  0  0  0  0  0  0
  149.3638  168.1365  136.1282 C   0  0  0  0  0  0  0  0  0  0  0  0
  149.4900  168.8833  137.4455 C   0  0  2  0  0  0  0  0  0  0  0  0
  150.1390  167.9425  138.4607 C   0  0  0  0  0  0  0  0  0  0  0  0
  148.1448  169.2629  138.0023 C   0  0  0  0  0  0  0  0  0  0  0  0
  147.1018  168.4370  137.3224 C   0  0  0  0  0  0  0  0  0  0  0  0
  147.0292  168.7693  135.8212 C   0  0  1  0  0  0  0  0  0  0  0  0
  146.3053  170.1089  135.7440 C   0  0  0  0  0  0  0  0  0  0  0  0
  146.1846  167.7068  135.2129 C   0  0  0  0  0  0  0  0  0  0  0  0
  146.1181  167.8658  133.7160 C   0  0  0  0  0  0  0  0  0  0  0  0
  147.4930  167.7237  133.0744 C   0  0  1  0  0  0  0  0  0  0  0  0
  147.7907  166.2407  133.0452 C   0  0  0  0  0  0  0  0  0  0  0  0
  150.3119  170.0935  137.3153 C   0  0  0  0  0  0  0  0  0  0  0  0
  150.9885  170.4044  136.1390 O   0  0  0  0  0  0  0  0  0  0  0  0
  150.4392  170.9043  138.2675 O   0  0  0  0  0  0  0  0  0  0  0  0
  147.7190  166.6750  127.6691 C   0  0  0  0  0  0  0  0  0  0  0  0
  146.6679  165.5566  127.5468 C   0  0  0  0  0  0  0  0  0  0  0  0
  147.4216  167.6672  126.6187 C   0  0  0  0  0  0  0  0  0  0  0  0
  1  2  1  0
  2  3  2  0
  2  4  1  0
  5  4  1  6
  5  6  1  0
  6  7  1  0
  7  8  1  0
  8  9  1  1
  8 10  1  0
 10 11  1  6
 11 12  1  0
 12 13  1  0
 13 14  1  1
 13 15  1  0
 15 16  1  1
 16 17  2  0
 16 18  1  0
 18 19  2  0
 19 20  1  0
 20 21  1  1
 21 22  1  0
 22 23  1  1
 22 24  1  0
 24 25  1  0
 25 26  1  0
 26 27  1  1
 26 28  1  0
 28 29  1  0
 29 30  1  0
 30 31  1  6
 22 32  1  0
 32 33  1  0
 32 34  2  0
 10 35  1  0
 35 36  1  0
 35 37  1  0
 35  5  1  0
 15  8  1  0
 30 19  1  0
 30 13  1  0
 26 20  1  0
M  END
$$$$
