
     RDKit          3D

 37 41  0  0  0  0  0  0  0  0999 V2000
  176.0317  161.4729  135.6596 C   0  0  0  0  0  0  0  0  0  0  0  0
  175.9836  161.0666  137.1014 C   0  0  0  0  0  0  0  0  0  0  0  0
  174.9304  161.1041  137.7823 O   0  0  0  0  0  0  0  0  0  0  0  0
  177.1134  160.6218  137.7692 O   0  0  0  0  0  0  0  0  0  0  0  0
  178.2861  160.2950  137.1173 C   0  0  1  0  0  0  0  0  0  0  0  0
  178.2057  159.1959  136.1260 C   0  0  0  0  0  0  0  0  0  0  0  0
  179.5899  158.7314  135.7304 C   0  0  0  0  0  0  0  0  0  0  0  0
  180.4650  159.8574  135.2343 C   0  0  1  0  0  0  0  0  0  0  0  0
  180.1061  160.0650  133.7808 C   0  0  0  0  0  0  0  0  0  0  0  0
  180.3079  161.1079  136.0595 C   0  0  1  0  0  0  0  0  0  0  0  0
  181.1140  162.2234  135.4401 C   0  0  0  0  0  0  0  0  0  0  0  0
  182.5751  161.8801  135.4305 C   0  0  0  0  0  0  0  0  0  0  0  0
  182.9107  160.4940  135.0636 C   0  0  2  0  0  0  0  0  0  0  0  0
  183.1966  160.3764  133.5674 C   0  0  0  0  0  0  0  0  0  0  0  0
  181.8973  159.4459  135.4333 C   0  0  2  0  0  0  0  0  0  0  0  0
  182.3109  158.1863  134.8272 C   0  0  0  0  0  0  0  0  0  0  0  0
  181.5592  157.2437  134.4769 O   0  0  0  0  0  0  0  0  0  0  0  0
  183.7417  158.0001  134.6042 C   0  0  0  0  0  0  0  0  0  0  0  0
  184.6649  158.8578  135.0251 C   0  0  0  0  0  0  0  0  0  0  0  0
  186.0710  158.5485  134.7330 C   0  0  2  0  0  0  0  0  0  0  0  0
  186.5757  157.3546  135.5555 C   0  0  0  0  0  0  0  0  0  0  0  0
  187.8416  156.8242  134.9036 C   0  0  2  0  0  0  0  0  0  0  0  0
  188.5465  155.9164  135.9116 C   0  0  0  0  0  0  0  0  0  0  0  0
  188.8031  157.9323  134.5697 C   0  0  0  0  0  0  0  0  0  0  0  0
  188.4143  159.1462  135.3493 C   0  0  0  0  0  0  0  0  0  0  0  0
  187.0316  159.6616  134.9115 C   0  0  1  0  0  0  0  0  0  0  0  0
  187.2688  160.3512  133.5726 C   0  0  0  0  0  0  0  0  0  0  0  0
  186.6348  160.6690  135.9314 C   0  0  0  0  0  0  0  0  0  0  0  0
  185.2424  161.1803  135.6668 C   0  0  0  0  0  0  0  0  0  0  0  0
  184.2077  160.0652  135.7576 C   0  0  1  0  0  0  0  0  0  0  0  0
  183.9880  159.8166  137.2337 C   0  0  0  0  0  0  0  0  0  0  0  0
  187.5532  156.0584  133.6840 C   0  0  0  0  0  0  0  0  0  0  0  0
  188.5603  155.4617  132.9305 O   0  0  0  0  0  0  0  0  0  0  0  0
  186.3766  155.9090  133.2674 O   0  0  0  0  0  0  0  0  0  0  0  0
  178.9273  161.4964  136.4190 C   0  0  0  0  0  0  0  0  0  0  0  0
  179.0510  162.5552  137.5300 C   0  0  0  0  0  0  0  0  0  0  0  0
  178.0865  162.0786  135.3559 C   0  0  0  0  0  0  0  0  0  0  0  0
  1  2  1  0
  2  3  2  0
  2  4  1  0
  5  4  1  6
  5  6  1  0
  6  7  1  0
  7  8  1  0
  8  9  1  6
  8 10  1  0
 10 11  1  6
 11 12  1  0
 12 13  1  0
 13 14  1  6
 13 15  1  0
 15 16  1  6
 16 17  2  0
 16 18  1  0
 18 19  2  0
 19 20  1  0
 20 21  1  1
 21 22  1  0
 22 23  1  1
 22 24  1  0
 24 25  1  0
 25 26  1  0
 26 27  1  6
 26 28  1  0
 28 29  1  0
 29 30  1  0
 30 31  1  1
 22 32  1  0
 32 33  1  0
 32 34  2  0
 10 35  1  0
 35 36  1  0
 35 37  1  0
 35  5  1  0
 15  8  1  0
 30 19  1  0
 30 13  1  0
 26 20  1  0
M  END
$$$$
