
     RDKit          3D

 37 41  0  0  0  0  0  0  0  0999 V2000
  130.7771  160.5579  160.5800 C   0  0  0  0  0  0  0  0  0  0  0  0
  131.8537  161.5922  160.4481 C   0  0  0  0  0  0  0  0  0  0  0  0
  132.2673  162.2690  161.4203 O   0  0  0  0  0  0  0  0  0  0  0  0
  132.4583  161.8607  159.2305 O   0  0  0  0  0  0  0  0  0  0  0  0
  131.7758  161.8132  158.0311 C   0  0  1  0  0  0  0  0  0  0  0  0
  130.5788  160.9400  157.9871 C   0  0  0  0  0  0  0  0  0  0  0  0
  130.1227  160.7306  156.5601 C   0  0  0  0  0  0  0  0  0  0  0  0
  129.8848  162.0283  155.8258 C   0  0  1  0  0  0  0  0  0  0  0  0
  128.4982  162.4876  156.2143 C   0  0  0  0  0  0  0  0  0  0  0  0
  130.9458  163.0552  156.1242 C   0  0  1  0  0  0  0  0  0  0  0  0
  130.5838  164.3601  155.4579 C   0  0  0  0  0  0  0  0  0  0  0  0
  130.5318  164.1979  153.9666 C   0  0  0  0  0  0  0  0  0  0  0  0
  129.8948  162.9654  153.4727 C   0  0  2  0  0  0  0  0  0  0  0  0
  128.4121  163.1924  153.1829 C   0  0  0  0  0  0  0  0  0  0  0  0
  130.0224  161.7535  154.3541 C   0  0  2  0  0  0  0  0  0  0  0  0
  129.1788  160.7023  153.7988 C   0  0  0  0  0  0  0  0  0  0  0  0
  128.6285  159.7713  154.4365 O   0  0  0  0  0  0  0  0  0  0  0  0
  128.9497  160.7330  152.3572 C   0  0  0  0  0  0  0  0  0  0  0  0
  129.5550  161.5868  151.5388 C   0  0  0  0  0  0  0  0  0  0  0  0
  129.2325  161.5094  150.1077 C   0  0  2  0  0  0  0  0  0  0  0  0
  129.8021  160.2385  149.4621 C   0  0  0  0  0  0  0  0  0  0  0  0
  129.0796  160.0040  148.1461 C   0  0  2  0  0  0  0  0  0  0  0  0
  129.8932  158.9961  147.3343 C   0  0  0  0  0  0  0  0  0  0  0  0
  128.9983  161.2609  147.3231 C   0  0  0  0  0  0  0  0  0  0  0  0
  130.0027  162.2349  147.8475 C   0  0  0  0  0  0  0  0  0  0  0  0
  129.6537  162.6656  149.2834 C   0  0  1  0  0  0  0  0  0  0  0  0
  128.4895  163.6388  149.1358 C   0  0  0  0  0  0  0  0  0  0  0  0
  130.8508  163.3884  149.7903 C   0  0  0  0  0  0  0  0  0  0  0  0
  130.6702  163.7784  151.2344 C   0  0  0  0  0  0  0  0  0  0  0  0
  130.5107  162.5563  152.1307 C   0  0  1  0  0  0  0  0  0  0  0  0
  131.9000  161.9852  152.3118 C   0  0  0  0  0  0  0  0  0  0  0  0
  127.7236  159.4775  148.3491 C   0  0  0  0  0  0  0  0  0  0  0  0
  127.4932  158.2302  148.9228 O   0  0  0  0  0  0  0  0  0  0  0  0
  126.7078  160.1363  148.0107 O   0  0  0  0  0  0  0  0  0  0  0  0
  131.3510  163.1987  157.5389 C   0  0  0  0  0  0  0  0  0  0  0  0
  132.6576  164.0131  157.5344 C   0  0  0  0  0  0  0  0  0  0  0  0
  130.4141  163.8859  158.4479 C   0  0  0  0  0  0  0  0  0  0  0  0
  1  2  1  0
  2  3  2  0
  2  4  1  0
  5  4  1  1
  5  6  1  0
  6  7  1  0
  7  8  1  0
  8  9  1  6
  8 10  1  0
 10 11  1  1
 11 12  1  0
 12 13  1  0
 13 14  1  6
 13 15  1  0
 15 16  1  6
 16 17  2  0
 16 18  1  0
 18 19  2  0
 19 20  1  0
 20 21  1  6
 21 22  1  0
 22 23  1  6
 22 24  1  0
 24 25  1  0
 25 26  1  0
 26 27  1  6
 26 28  1  0
 28 29  1  0
 29 30  1  0
 30 31  1  1
 22 32  1  0
 32 33  1  0
 32 34  2  0
 10 35  1  0
 35 36  1  0
 35 37  1  0
 35  5  1  0
 15  8  1  0
 30 19  1  0
 30 13  1  0
 26 20  1  0
M  END
$$$$
