
     RDKit          3D

 37 41  0  0  0  0  0  0  0  0999 V2000
  102.7240  161.5296  167.5716 C   0  0  0  0  0  0  0  0  0  0  0  0
  101.4163  162.2449  167.7281 C   0  0  0  0  0  0  0  0  0  0  0  0
  100.8588  162.4040  168.8409 O   0  0  0  0  0  0  0  0  0  0  0  0
  100.7435  162.7760  166.6394 O   0  0  0  0  0  0  0  0  0  0  0  0
  101.3521  163.6032  165.7163 C   0  0  1  0  0  0  0  0  0  0  0  0
  101.7071  164.9646  166.1831 C   0  0  0  0  0  0  0  0  0  0  0  0
  102.0622  165.8547  165.0128 C   0  0  0  0  0  0  0  0  0  0  0  0
  103.1487  165.2704  164.1422 C   0  0  1  0  0  0  0  0  0  0  0  0
  104.4594  165.6103  164.8139 C   0  0  0  0  0  0  0  0  0  0  0  0
  102.9704  163.7907  163.9237 C   0  0  1  0  0  0  0  0  0  0  0  0
  104.1491  163.2511  163.1509 C   0  0  0  0  0  0  0  0  0  0  0  0
  104.2335  163.8916  161.7961 C   0  0  0  0  0  0  0  0  0  0  0  0
  103.9770  165.3410  161.7496 C   0  0  2  0  0  0  0  0  0  0  0  0
  105.2795  166.1323  161.8562 C   0  0  0  0  0  0  0  0  0  0  0  0
  103.0147  165.8776  162.7734 C   0  0  2  0  0  0  0  0  0  0  0  0
  103.0377  167.3330  162.6934 C   0  0  0  0  0  0  0  0  0  0  0  0
  102.7957  168.1362  163.6275 O   0  0  0  0  0  0  0  0  0  0  0  0
  103.3757  167.9171  161.3987 C   0  0  0  0  0  0  0  0  0  0  0  0
  103.5444  167.1985  160.2941 C   0  0  0  0  0  0  0  0  0  0  0  0
  103.8831  167.9140  159.0565 C   0  0  2  0  0  0  0  0  0  0  0  0
  102.6991  168.7381  158.5314 C   0  0  0  0  0  0  0  0  0  0  0  0
  103.2298  169.7658  157.5460 C   0  0  2  0  0  0  0  0  0  0  0  0
  102.0455  170.3067  156.7449 C   0  0  0  0  0  0  0  0  0  0  0  0
  104.1798  169.1495  156.5554 C   0  0  0  0  0  0  0  0  0  0  0  0
  103.9880  167.6679  156.5753 C   0  0  0  0  0  0  0  0  0  0  0  0
  104.3864  167.0800  157.9410 C   0  0  1  0  0  0  0  0  0  0  0  0
  105.9109  167.0844  157.9474 C   0  0  0  0  0  0  0  0  0  0  0  0
  103.8887  165.6783  157.9377 C   0  0  0  0  0  0  0  0  0  0  0  0
  104.1319  165.0197  159.2708 C   0  0  0  0  0  0  0  0  0  0  0  0
  103.3801  165.7264  160.3922 C   0  0  1  0  0  0  0  0  0  0  0  0
  101.9389  165.2809  160.2761 C   0  0  0  0  0  0  0  0  0  0  0  0
  103.9034  170.8812  158.2237 C   0  0  0  0  0  0  0  0  0  0  0  0
  104.2627  172.0459  157.5512 O   0  0  0  0  0  0  0  0  0  0  0  0
  104.1853  170.8297  159.4477 O   0  0  0  0  0  0  0  0  0  0  0  0
  102.6129  162.9832  165.1096 C   0  0  0  0  0  0  0  0  0  0  0  0
  102.1416  161.6175  164.5772 C   0  0  0  0  0  0  0  0  0  0  0  0
  103.6756  162.7206  166.0984 C   0  0  0  0  0  0  0  0  0  0  0  0
  1  2  1  0
  2  3  2  0
  2  4  1  0
  5  4  1  1
  5  6  1  0
  6  7  1  0
  7  8  1  0
  8  9  1  1
  8 10  1  0
 10 11  1  1
 11 12  1  0
 12 13  1  0
 13 14  1  1
 13 15  1  0
 15 16  1  1
 16 17  2  0
 16 18  1  0
 18 19  2  0
 19 20  1  0
 20 21  1  6
 21 22  1  0
 22 23  1  6
 22 24  1  0
 24 25  1  0
 25 26  1  0
 26 27  1  6
 26 28  1  0
 28 29  1  0
 29 30  1  0
 30 31  1  1
 22 32  1  0
 32 33  1  0
 32 34  2  0
 10 35  1  0
 35 36  1  0
 35 37  1  0
 35  5  1  0
 15  8  1  0
 30 19  1  0
 30 13  1  0
 26 20  1  0
M  END
$$$$
