
     RDKit          3D

 37 41  0  0  0  0  0  0  0  0999 V2000
  191.2550  162.0106  135.8457 C   0  0  0  0  0  0  0  0  0  0  0  0
  190.4305  162.3420  134.6388 C   0  0  0  0  0  0  0  0  0  0  0  0
  190.7982  162.0703  133.4703 O   0  0  0  0  0  0  0  0  0  0  0  0
  189.2024  162.9742  134.7488 O   0  0  0  0  0  0  0  0  0  0  0  0
  188.3917  162.8430  135.8590 C   0  0  1  0  0  0  0  0  0  0  0  0
  188.2468  161.4755  136.4124 C   0  0  0  0  0  0  0  0  0  0  0  0
  187.1051  161.4186  137.4031 C   0  0  0  0  0  0  0  0  0  0  0  0
  187.2324  162.4465  138.5017 C   0  0  1  0  0  0  0  0  0  0  0  0
  188.1697  161.8553  139.5295 C   0  0  0  0  0  0  0  0  0  0  0  0
  187.7007  163.7809  137.9827 C   0  0  1  0  0  0  0  0  0  0  0  0
  187.9216  164.7217  139.1420 C   0  0  0  0  0  0  0  0  0  0  0  0
  186.6387  164.9606  139.8834 C   0  0  0  0  0  0  0  0  0  0  0  0
  185.7882  163.7781  140.1006 C   0  0  2  0  0  0  0  0  0  0  0  0
  186.0816  163.1324  141.4537 C   0  0  0  0  0  0  0  0  0  0  0  0
  185.8552  162.7096  139.0443 C   0  0  2  0  0  0  0  0  0  0  0  0
  185.1045  161.5555  139.5233 C   0  0  0  0  0  0  0  0  0  0  0  0
  185.3051  160.3546  139.2170 O   0  0  0  0  0  0  0  0  0  0  0  0
  184.0095  161.8201  140.4520 C   0  0  0  0  0  0  0  0  0  0  0  0
  183.6071  163.0435  140.7783 C   0  0  0  0  0  0  0  0  0  0  0  0
  182.4918  163.1676  141.7264 C   0  0  2  0  0  0  0  0  0  0  0  0
  181.1611  162.7228  141.1037 C   0  0  0  0  0  0  0  0  0  0  0  0
  180.1716  162.4573  142.2258 C   0  0  2  0  0  0  0  0  0  0  0  0
  178.7708  162.4015  141.6162 C   0  0  0  0  0  0  0  0  0  0  0  0
  180.1621  163.5722  143.2361 C   0  0  0  0  0  0  0  0  0  0  0  0
  180.8034  164.7732  142.6206 C   0  0  0  0  0  0  0  0  0  0  0  0
  182.2897  164.5096  142.3196 C   0  0  1  0  0  0  0  0  0  0  0  0
  182.9891  164.5806  143.6724 C   0  0  0  0  0  0  0  0  0  0  0  0
  182.7354  165.6419  141.4643 C   0  0  0  0  0  0  0  0  0  0  0  0
  184.1606  165.4470  141.0161 C   0  0  0  0  0  0  0  0  0  0  0  0
  184.3148  164.1940  140.1625 C   0  0  1  0  0  0  0  0  0  0  0  0
  183.7841  164.5528  138.7919 C   0  0  0  0  0  0  0  0  0  0  0  0
  180.4485  161.1904  142.9153 C   0  0  0  0  0  0  0  0  0  0  0  0
  179.9075  160.8946  144.1634 O   0  0  0  0  0  0  0  0  0  0  0  0
  181.1907  160.3146  142.4029 O   0  0  0  0  0  0  0  0  0  0  0  0
  188.8131  163.7608  137.0089 C   0  0  0  0  0  0  0  0  0  0  0  0
  188.8579  165.1627  136.3739 C   0  0  0  0  0  0  0  0  0  0  0  0
  190.1645  163.4751  137.5267 C   0  0  0  0  0  0  0  0  0  0  0  0
  1  2  1  0
  2  3  2  0
  2  4  1  0
  5  4  1  6
  5  6  1  0
  6  7  1  0
  7  8  1  0
  8  9  1  1
  8 10  1  0
 10 11  1  1
 11 12  1  0
 12 13  1  0
 13 14  1  1
 13 15  1  0
 15 16  1  1
 16 17  2  0
 16 18  1  0
 18 19  2  0
 19 20  1  0
 20 21  1  6
 21 22  1  0
 22 23  1  6
 22 24  1  0
 24 25  1  0
 25 26  1  0
 26 27  1  1
 26 28  1  0
 28 29  1  0
 29 30  1  0
 30 31  1  6
 22 32  1  0
 32 33  1  0
 32 34  2  0
 10 35  1  0
 35 36  1  0
 35 37  1  0
 35  5  1  0
 15  8  1  0
 30 19  1  0
 30 13  1  0
 26 20  1  0
M  END
$$$$
