
     RDKit          3D

 37 41  0  0  0  0  0  0  0  0999 V2000
  173.2104  149.2721  128.0270 C   0  0  0  0  0  0  0  0  0  0  0  0
  173.3966  148.1957  127.0008 C   0  0  0  0  0  0  0  0  0  0  0  0
  174.5265  147.8427  126.5850 O   0  0  0  0  0  0  0  0  0  0  0  0
  172.3180  147.5235  126.4487 O   0  0  0  0  0  0  0  0  0  0  0  0
  171.0076  147.8480  126.7393 C   0  0  1  0  0  0  0  0  0  0  0  0
  170.7333  148.3123  128.1200 C   0  0  0  0  0  0  0  0  0  0  0  0
  169.2456  148.3244  128.3937 C   0  0  0  0  0  0  0  0  0  0  0  0
  168.4707  149.1292  127.3780 C   0  0  1  0  0  0  0  0  0  0  0  0
  168.5745  150.5732  127.8122 C   0  0  0  0  0  0  0  0  0  0  0  0
  168.9665  148.9041  125.9735 C   0  0  1  0  0  0  0  0  0  0  0  0
  168.2336  149.8244  125.0282 C   0  0  0  0  0  0  0  0  0  0  0  0
  166.7626  149.5263  125.0314 C   0  0  0  0  0  0  0  0  0  0  0  0
  166.1602  149.2603  126.3486 C   0  0  2  0  0  0  0  0  0  0  0  0
  165.5816  150.5374  126.9553 C   0  0  0  0  0  0  0  0  0  0  0  0
  167.0570  148.6176  127.3707 C   0  0  2  0  0  0  0  0  0  0  0  0
  166.3525  148.6107  128.6468 C   0  0  0  0  0  0  0  0  0  0  0  0
  166.8746  148.6339  129.7884 O   0  0  0  0  0  0  0  0  0  0  0  0
  164.8939  148.5732  128.5948 C   0  0  0  0  0  0  0  0  0  0  0  0
  164.2060  148.4320  127.4670 C   0  0  0  0  0  0  0  0  0  0  0  0
  162.7398  148.4103  127.5571 C   0  0  2  0  0  0  0  0  0  0  0  0
  162.2276  147.1233  128.2188 C   0  0  0  0  0  0  0  0  0  0  0  0
  160.7962  147.3548  128.6731 C   0  0  2  0  0  0  0  0  0  0  0  0
  160.1676  145.9921  128.9645 C   0  0  0  0  0  0  0  0  0  0  0  0
  159.9655  147.9953  127.5945 C   0  0  0  0  0  0  0  0  0  0  0  0
  160.6720  147.8234  126.2892 C   0  0  0  0  0  0  0  0  0  0  0  0
  162.0079  148.5880  126.2819 C   0  0  1  0  0  0  0  0  0  0  0  0
  161.6270  150.0544  126.1116 C   0  0  0  0  0  0  0  0  0  0  0  0
  162.7368  148.1155  125.0746 C   0  0  0  0  0  0  0  0  0  0  0  0
  164.1143  148.7224  125.0080 C   0  0  0  0  0  0  0  0  0  0  0  0
  164.9690  148.3081  126.1997 C   0  0  1  0  0  0  0  0  0  0  0  0
  165.4248  146.8935  125.9169 C   0  0  0  0  0  0  0  0  0  0  0  0
  160.7304  148.1849  129.8830 C   0  0  0  0  0  0  0  0  0  0  0  0
  159.7792  149.1893  130.0393 O   0  0  0  0  0  0  0  0  0  0  0  0
  161.5361  148.0214  130.8340 O   0  0  0  0  0  0  0  0  0  0  0  0
  170.4325  148.8937  125.7811 C   0  0  0  0  0  0  0  0  0  0  0  0
  170.6813  148.2995  124.3827 C   0  0  0  0  0  0  0  0  0  0  0  0
  171.1340  150.1904  125.8330 C   0  0  0  0  0  0  0  0  0  0  0  0
  1  2  1  0
  2  3  2  0
  2  4  1  0
  5  4  1  1
  5  6  1  0
  6  7  1  0
  7  8  1  0
  8  9  1  1
  8 10  1  0
 10 11  1  6
 11 12  1  0
 12 13  1  0
 13 14  1  1
 13 15  1  0
 15 16  1  1
 16 17  2  0
 16 18  1  0
 18 19  2  0
 19 20  1  0
 20 21  1  6
 21 22  1  0
 22 23  1  1
 22 24  1  0
 24 25  1  0
 25 26  1  0
 26 27  1  6
 26 28  1  0
 28 29  1  0
 29 30  1  0
 30 31  1  6
 22 32  1  0
 32 33  1  0
 32 34  2  0
 10 35  1  0
 35 36  1  0
 35 37  1  0
 35  5  1  0
 15  8  1  0
 30 19  1  0
 30 13  1  0
 26 20  1  0
M  END
$$$$
