
     RDKit          3D

 37 41  0  0  0  0  0  0  0  0999 V2000
  167.4395  157.4104  129.2220 C   0  0  0  0  0  0  0  0  0  0  0  0
  168.1890  156.8382  128.0571 C   0  0  0  0  0  0  0  0  0  0  0  0
  168.4932  157.5167  127.0464 O   0  0  0  0  0  0  0  0  0  0  0  0
  168.5918  155.5126  128.0323 O   0  0  0  0  0  0  0  0  0  0  0  0
  167.6978  154.4610  127.9934 C   0  0  1  0  0  0  0  0  0  0  0  0
  166.7428  154.3645  129.1229 C   0  0  0  0  0  0  0  0  0  0  0  0
  166.0518  153.0189  129.1245 C   0  0  0  0  0  0  0  0  0  0  0  0
  165.3817  152.7040  127.8086 C   0  0  1  0  0  0  0  0  0  0  0  0
  164.0430  153.4050  127.8357 C   0  0  0  0  0  0  0  0  0  0  0  0
  166.2273  153.1042  126.6279 C   0  0  1  0  0  0  0  0  0  0  0  0
  165.4520  152.8745  125.3535 C   0  0  0  0  0  0  0  0  0  0  0  0
  165.1215  151.4197  125.1885 C   0  0  0  0  0  0  0  0  0  0  0  0
  164.6834  150.7146  126.4049 C   0  0  2  0  0  0  0  0  0  0  0  0
  163.1604  150.7223  126.5250 C   0  0  0  0  0  0  0  0  0  0  0  0
  165.2607  151.2092  127.7027 C   0  0  2  0  0  0  0  0  0  0  0  0
  164.5728  150.5253  128.7908 C   0  0  0  0  0  0  0  0  0  0  0  0
  164.3909  150.9651  129.9527 O   0  0  0  0  0  0  0  0  0  0  0  0
  164.0415  149.1962  128.5033 C   0  0  0  0  0  0  0  0  0  0  0  0
  164.2544  148.5556  127.3590 C   0  0  0  0  0  0  0  0  0  0  0  0
  163.6604  147.2214  127.2002 C   0  0  2  0  0  0  0  0  0  0  0  0
  164.3469  146.1806  128.0958 C   0  0  0  0  0  0  0  0  0  0  0  0
  163.4315  144.9739  128.2169 C   0  0  2  0  0  0  0  0  0  0  0  0
  164.2566  143.8089  128.7637 C   0  0  0  0  0  0  0  0  0  0  0  0
  162.9007  144.5401  126.8776 C   0  0  0  0  0  0  0  0  0  0  0  0
  163.7522  145.1496  125.8119 C   0  0  0  0  0  0  0  0  0  0  0  0
  163.6299  146.6840  125.8204 C   0  0  1  0  0  0  0  0  0  0  0  0
  162.2749  146.9793  125.1871 C   0  0  0  0  0  0  0  0  0  0  0  0
  164.7167  147.1805  124.9346 C   0  0  0  0  0  0  0  0  0  0  0  0
  164.7654  148.6865  124.9380 C   0  0  0  0  0  0  0  0  0  0  0  0
  165.0750  149.2354  126.3255 C   0  0  1  0  0  0  0  0  0  0  0  0
  166.5621  149.0461  126.5289 C   0  0  0  0  0  0  0  0  0  0  0  0
  162.3008  145.2293  129.1189 C   0  0  0  0  0  0  0  0  0  0  0  0
  161.4335  144.2176  129.5216 O   0  0  0  0  0  0  0  0  0  0  0  0
  162.0681  146.3803  129.5676 O   0  0  0  0  0  0  0  0  0  0  0  0
  166.8819  154.4281  126.6990 C   0  0  0  0  0  0  0  0  0  0  0  0
  167.9440  154.4461  125.5844 C   0  0  0  0  0  0  0  0  0  0  0  0
  166.0312  155.6180  126.5075 C   0  0  0  0  0  0  0  0  0  0  0  0
  1  2  1  0
  2  3  2  0
  2  4  1  0
  5  4  1  1
  5  6  1  0
  6  7  1  0
  7  8  1  0
  8  9  1  1
  8 10  1  0
 10 11  1  6
 11 12  1  0
 12 13  1  0
 13 14  1  1
 13 15  1  0
 15 16  1  1
 16 17  2  0
 16 18  1  0
 18 19  2  0
 19 20  1  0
 20 21  1  1
 21 22  1  0
 22 23  1  1
 22 24  1  0
 24 25  1  0
 25 26  1  0
 26 27  1  6
 26 28  1  0
 28 29  1  0
 29 30  1  0
 30 31  1  1
 22 32  1  0
 32 33  1  0
 32 34  2  0
 10 35  1  0
 35 36  1  0
 35 37  1  0
 35  5  1  0
 15  8  1  0
 30 19  1  0
 30 13  1  0
 26 20  1  0
M  END
$$$$
