
     RDKit          3D

 37 41  0  0  0  0  0  0  0  0999 V2000
  166.3088  166.3468  106.3637 C   0  0  0  0  0  0  0  0  0  0  0  0
  165.8750  167.0790  107.5974 C   0  0  0  0  0  0  0  0  0  0  0  0
  164.7034  167.4966  107.7620 O   0  0  0  0  0  0  0  0  0  0  0  0
  166.7549  167.3378  108.6361 O   0  0  0  0  0  0  0  0  0  0  0  0
  167.8257  166.5169  108.9300 C   0  0  1  0  0  0  0  0  0  0  0  0
  167.7438  165.1225  108.4339 C   0  0  0  0  0  0  0  0  0  0  0  0
  168.8032  164.2610  109.0848 C   0  0  0  0  0  0  0  0  0  0  0  0
  170.1952  164.8226  108.9215 C   0  0  1  0  0  0  0  0  0  0  0  0
  170.6688  164.3915  107.5524 C   0  0  0  0  0  0  0  0  0  0  0  0
  170.2331  166.3168  109.1094 C   0  0  1  0  0  0  0  0  0  0  0  0
  171.6232  166.8254  108.8148 C   0  0  0  0  0  0  0  0  0  0  0  0
  172.6182  166.2338  109.7702 C   0  0  0  0  0  0  0  0  0  0  0  0
  172.4517  164.8020  110.0719 C   0  0  2  0  0  0  0  0  0  0  0  0
  173.3073  163.9424  109.1430 C   0  0  0  0  0  0  0  0  0  0  0  0
  171.0432  164.2758  110.0361 C   0  0  2  0  0  0  0  0  0  0  0  0
  171.1011  162.8253  110.1688 C   0  0  0  0  0  0  0  0  0  0  0  0
  170.2706  162.0001  109.7154 O   0  0  0  0  0  0  0  0  0  0  0  0
  172.2374  162.2749  110.9019 C   0  0  0  0  0  0  0  0  0  0  0  0
  173.1328  163.0259  111.5339 C   0  0  0  0  0  0  0  0  0  0  0  0
  174.2287  162.3421  112.2337 C   0  0  2  0  0  0  0  0  0  0  0  0
  173.7331  161.5995  113.4826 C   0  0  0  0  0  0  0  0  0  0  0  0
  174.7891  160.5849  113.8876 C   0  0  2  0  0  0  0  0  0  0  0  0
  174.4877  160.1355  115.3174 C   0  0  0  0  0  0  0  0  0  0  0  0
  176.1666  161.1898  113.9031 C   0  0  0  0  0  0  0  0  0  0  0  0
  176.0292  162.6774  113.9289 C   0  0  0  0  0  0  0  0  0  0  0  0
  175.3735  163.1917  112.6347 C   0  0  1  0  0  0  0  0  0  0  0  0
  176.4662  163.1101  111.5747 C   0  0  0  0  0  0  0  0  0  0  0  0
  175.0313  164.6158  112.8940 C   0  0  0  0  0  0  0  0  0  0  0  0
  174.2873  165.2098  111.7261 C   0  0  0  0  0  0  0  0  0  0  0  0
  172.9607  164.4995  111.4851 C   0  0  1  0  0  0  0  0  0  0  0  0
  172.0085  165.0213  112.5386 C   0  0  0  0  0  0  0  0  0  0  0  0
  174.7925  159.4117  113.0039 C   0  0  0  0  0  0  0  0  0  0  0  0
  173.7109  159.1003  112.1848 O   0  0  0  0  0  0  0  0  0  0  0  0
  175.7795  158.6350  112.9505 O   0  0  0  0  0  0  0  0  0  0  0  0
  169.1604  167.0952  108.4541 C   0  0  0  0  0  0  0  0  0  0  0  0
  169.2041  168.5024  109.0775 C   0  0  0  0  0  0  0  0  0  0  0  0
  169.2412  167.2658  106.9910 C   0  0  0  0  0  0  0  0  0  0  0  0
  1  2  1  0
  2  3  2  0
  2  4  1  0
  5  4  1  6
  5  6  1  0
  6  7  1  0
  7  8  1  0
  8  9  1  6
  8 10  1  0
 10 11  1  6
 11 12  1  0
 12 13  1  0
 13 14  1  6
 13 15  1  0
 15 16  1  6
 16 17  2  0
 16 18  1  0
 18 19  2  0
 19 20  1  0
 20 21  1  1
 21 22  1  0
 22 23  1  1
 22 24  1  0
 24 25  1  0
 25 26  1  0
 26 27  1  6
 26 28  1  0
 28 29  1  0
 29 30  1  0
 30 31  1  1
 22 32  1  0
 32 33  1  0
 32 34  2  0
 10 35  1  0
 35 36  1  0
 35 37  1  0
 35  5  1  0
 15  8  1  0
 30 19  1  0
 30 13  1  0
 26 20  1  0
M  END
$$$$
