
     RDKit          3D

 37 41  0  0  0  0  0  0  0  0999 V2000
  161.0562  142.8111  125.0753 C   0  0  0  0  0  0  0  0  0  0  0  0
  159.8563  143.7047  125.1646 C   0  0  0  0  0  0  0  0  0  0  0  0
  158.7568  143.4197  124.6314 O   0  0  0  0  0  0  0  0  0  0  0  0
  159.8962  144.9088  125.8490 O   0  0  0  0  0  0  0  0  0  0  0  0
  161.0521  145.6516  125.9870 C   0  0  1  0  0  0  0  0  0  0  0  0
  162.2728  144.9064  126.3763 C   0  0  0  0  0  0  0  0  0  0  0  0
  163.3684  145.8599  126.7993 C   0  0  0  0  0  0  0  0  0  0  0  0
  163.6715  146.9041  125.7517 C   0  0  1  0  0  0  0  0  0  0  0  0
  164.6062  146.2512  124.7597 C   0  0  0  0  0  0  0  0  0  0  0  0
  162.4218  147.4458  125.1082 C   0  0  1  0  0  0  0  0  0  0  0  0
  162.7995  148.3904  123.9932 C   0  0  0  0  0  0  0  0  0  0  0  0
  163.5659  149.5643  124.5292 C   0  0  0  0  0  0  0  0  0  0  0  0
  164.5775  149.2613  125.5556 C   0  0  2  0  0  0  0  0  0  0  0  0
  165.9535  149.0531  124.9252 C   0  0  0  0  0  0  0  0  0  0  0  0
  164.2858  148.0865  126.4482 C   0  0  2  0  0  0  0  0  0  0  0  0
  165.4707  147.8312  127.2579 C   0  0  0  0  0  0  0  0  0  0  0  0
  165.8264  146.7249  127.7333 O   0  0  0  0  0  0  0  0  0  0  0  0
  166.3314  148.9747  127.5463 C   0  0  0  0  0  0  0  0  0  0  0  0
  166.0264  150.2229  127.2084 C   0  0  0  0  0  0  0  0  0  0  0  0
  166.9834  151.2808  127.5593 C   0  0  2  0  0  0  0  0  0  0  0  0
  167.0275  151.5315  129.0732 C   0  0  0  0  0  0  0  0  0  0  0  0
  168.3070  152.2841  129.3975 C   0  0  2  0  0  0  0  0  0  0  0  0
  168.1674  152.8680  130.8035 C   0  0  0  0  0  0  0  0  0  0  0  0
  168.5231  153.4443  128.4643 C   0  0  0  0  0  0  0  0  0  0  0  0
  167.2277  153.7540  127.7874 C   0  0  0  0  0  0  0  0  0  0  0  0
  166.7838  152.5860  126.8884 C   0  0  1  0  0  0  0  0  0  0  0  0
  167.6781  152.6690  125.6564 C   0  0  0  0  0  0  0  0  0  0  0  0
  165.3767  152.8817  126.5078 C   0  0  0  0  0  0  0  0  0  0  0  0
  164.7908  151.7523  125.7006 C   0  0  0  0  0  0  0  0  0  0  0  0
  164.7427  150.4561  126.5004 C   0  0  1  0  0  0  0  0  0  0  0  0
  163.5625  150.5858  127.4382 C   0  0  0  0  0  0  0  0  0  0  0  0
  169.4861  151.4095  129.3533 C   0  0  0  0  0  0  0  0  0  0  0  0
  169.4002  150.0407  129.5921 O   0  0  0  0  0  0  0  0  0  0  0  0
  170.6295  151.8641  129.0961 O   0  0  0  0  0  0  0  0  0  0  0  0
  161.3884  146.4581  124.7305 C   0  0  0  0  0  0  0  0  0  0  0  0
  160.1061  147.2611  124.4447 C   0  0  0  0  0  0  0  0  0  0  0  0
  161.6498  145.6208  123.5445 C   0  0  0  0  0  0  0  0  0  0  0  0
  1  2  1  0
  2  3  2  0
  2  4  1  0
  5  4  1  6
  5  6  1  0
  6  7  1  0
  7  8  1  0
  8  9  1  6
  8 10  1  0
 10 11  1  6
 11 12  1  0
 12 13  1  0
 13 14  1  6
 13 15  1  0
 15 16  1  6
 16 17  2  0
 16 18  1  0
 18 19  2  0
 19 20  1  0
 20 21  1  1
 21 22  1  0
 22 23  1  1
 22 24  1  0
 24 25  1  0
 25 26  1  0
 26 27  1  6
 26 28  1  0
 28 29  1  0
 29 30  1  0
 30 31  1  1
 22 32  1  0
 32 33  1  0
 32 34  2  0
 10 35  1  0
 35 36  1  0
 35 37  1  0
 35  5  1  0
 15  8  1  0
 30 19  1  0
 30 13  1  0
 26 20  1  0
M  END
$$$$
