
     RDKit          3D

 37 41  0  0  0  0  0  0  0  0999 V2000
  171.3000  169.2010  108.0902 C   0  0  0  0  0  0  0  0  0  0  0  0
  170.0181  168.4477  108.2785 C   0  0  0  0  0  0  0  0  0  0  0  0
  168.8922  168.9976  108.2143 O   0  0  0  0  0  0  0  0  0  0  0  0
  170.0063  167.0864  108.5369 O   0  0  0  0  0  0  0  0  0  0  0  0
  171.0855  166.4206  109.0836 C   0  0  1  0  0  0  0  0  0  0  0  0
  172.4290  166.9253  108.7131 C   0  0  0  0  0  0  0  0  0  0  0  0
  173.5001  165.9332  109.1089 C   0  0  0  0  0  0  0  0  0  0  0  0
  173.4372  165.5564  110.5696 C   0  0  1  0  0  0  0  0  0  0  0  0
  174.1571  166.6520  111.3218 C   0  0  0  0  0  0  0  0  0  0  0  0
  172.0225  165.3528  111.0456 C   0  0  1  0  0  0  0  0  0  0  0  0
  172.0244  165.0990  112.5333 C   0  0  0  0  0  0  0  0  0  0  0  0
  172.7849  163.8461  112.8569 C   0  0  0  0  0  0  0  0  0  0  0  0
  174.0414  163.6435  112.1160 C   0  0  2  0  0  0  0  0  0  0  0  0
  175.2338  164.1921  112.8976 C   0  0  0  0  0  0  0  0  0  0  0  0
  174.0895  164.2107  110.7238 C   0  0  2  0  0  0  0  0  0  0  0  0
  175.4556  164.0808  110.2318 C   0  0  0  0  0  0  0  0  0  0  0  0
  176.0195  164.8212  109.3892 O   0  0  0  0  0  0  0  0  0  0  0  0
  176.2491  162.9805  110.7715 C   0  0  0  0  0  0  0  0  0  0  0  0
  175.7544  162.0510  111.5817 C   0  0  0  0  0  0  0  0  0  0  0  0
  176.6644  160.9981  112.0525 C   0  0  2  0  0  0  0  0  0  0  0  0
  177.0548  160.0342  110.9234 C   0  0  0  0  0  0  0  0  0  0  0  0
  178.2981  159.2728  111.3515 C   0  0  2  0  0  0  0  0  0  0  0  0
  178.4536  158.0653  110.4269 C   0  0  0  0  0  0  0  0  0  0  0  0
  178.1684  158.7353  112.7508 C   0  0  0  0  0  0  0  0  0  0  0  0
  176.7233  158.7478  113.1298 C   0  0  0  0  0  0  0  0  0  0  0  0
  176.1843  160.1881  113.1957 C   0  0  1  0  0  0  0  0  0  0  0  0
  176.7370  160.7613  114.4958 C   0  0  0  0  0  0  0  0  0  0  0  0
  174.7054  160.0617  113.2918 C   0  0  0  0  0  0  0  0  0  0  0  0
  174.0483  161.4173  113.2630 C   0  0  0  0  0  0  0  0  0  0  0  0
  174.3202  162.1458  111.9524 C   0  0  1  0  0  0  0  0  0  0  0  0
  173.3994  161.5214  110.9271 C   0  0  0  0  0  0  0  0  0  0  0  0
  179.5072  160.1025  111.2687 C   0  0  0  0  0  0  0  0  0  0  0  0
  180.7849  159.5587  111.3673 O   0  0  0  0  0  0  0  0  0  0  0  0
  179.4375  161.3469  111.1042 O   0  0  0  0  0  0  0  0  0  0  0  0
  171.0257  166.3548  110.6114 C   0  0  0  0  0  0  0  0  0  0  0  0
  169.6428  165.7462  110.9078 C   0  0  0  0  0  0  0  0  0  0  0  0
  171.0657  167.6788  111.2609 C   0  0  0  0  0  0  0  0  0  0  0  0
  1  2  1  0
  2  3  2  0
  2  4  1  0
  5  4  1  1
  5  6  1  0
  6  7  1  0
  7  8  1  0
  8  9  1  1
  8 10  1  0
 10 11  1  1
 11 12  1  0
 12 13  1  0
 13 14  1  1
 13 15  1  0
 15 16  1  1
 16 17  2  0
 16 18  1  0
 18 19  2  0
 19 20  1  0
 20 21  1  6
 21 22  1  0
 22 23  1  6
 22 24  1  0
 24 25  1  0
 25 26  1  0
 26 27  1  1
 26 28  1  0
 28 29  1  0
 29 30  1  0
 30 31  1  6
 22 32  1  0
 32 33  1  0
 32 34  2  0
 10 35  1  0
 35 36  1  0
 35 37  1  0
 35  5  1  0
 15  8  1  0
 30 19  1  0
 30 13  1  0
 26 20  1  0
M  END
$$$$
