
     RDKit          3D

 37 41  0  0  0  0  0  0  0  0999 V2000
  171.7537  149.8453  132.6859 C   0  0  0  0  0  0  0  0  0  0  0  0
  172.2798  149.9924  131.2902 C   0  0  0  0  0  0  0  0  0  0  0  0
  173.2156  150.7750  130.9967 O   0  0  0  0  0  0  0  0  0  0  0  0
  171.7551  149.2633  130.2352 O   0  0  0  0  0  0  0  0  0  0  0  0
  170.4159  149.2932  129.8997 C   0  0  1  0  0  0  0  0  0  0  0  0
  169.4752  149.6911  130.9739 C   0  0  0  0  0  0  0  0  0  0  0  0
  168.0493  149.3771  130.5784 C   0  0  0  0  0  0  0  0  0  0  0  0
  167.6620  149.9882  129.2531 C   0  0  1  0  0  0  0  0  0  0  0  0
  167.2789  151.4213  129.5425 C   0  0  0  0  0  0  0  0  0  0  0  0
  168.7605  149.8722  128.2288 C   0  0  1  0  0  0  0  0  0  0  0  0
  168.3563  150.6055  126.9731 C   0  0  0  0  0  0  0  0  0  0  0  0
  167.1251  149.9916  126.3732 C   0  0  0  0  0  0  0  0  0  0  0  0
  166.0678  149.6047  127.3225 C   0  0  2  0  0  0  0  0  0  0  0  0
  165.0436  150.7258  127.4899 C   0  0  0  0  0  0  0  0  0  0  0  0
  166.5274  149.1785  128.6898 C   0  0  2  0  0  0  0  0  0  0  0  0
  165.3482  149.0218  129.5323 C   0  0  0  0  0  0  0  0  0  0  0  0
  165.2967  149.1634  130.7788 O   0  0  0  0  0  0  0  0  0  0  0  0
  164.1013  148.6646  128.8621 C   0  0  0  0  0  0  0  0  0  0  0  0
  164.0246  148.3715  127.5685 C   0  0  0  0  0  0  0  0  0  0  0  0
  162.7052  148.0287  127.0209 C   0  0  2  0  0  0  0  0  0  0  0  0
  162.2160  146.6631  127.5233 C   0  0  0  0  0  0  0  0  0  0  0  0
  160.7167  146.5761  127.2921 C   0  0  2  0  0  0  0  0  0  0  0  0
  160.3040  145.1098  127.4198 C   0  0  0  0  0  0  0  0  0  0  0  0
  160.3406  147.0145  125.9028 C   0  0  0  0  0  0  0  0  0  0  0  0
  161.5692  146.9971  125.0529 C   0  0  0  0  0  0  0  0  0  0  0  0
  162.5928  148.0364  125.5442 C   0  0  1  0  0  0  0  0  0  0  0  0
  162.0478  149.3826  125.0805 C   0  0  0  0  0  0  0  0  0  0  0  0
  163.8566  147.7310  124.8219 C   0  0  0  0  0  0  0  0  0  0  0  0
  164.9736  148.6254  125.2938 C   0  0  0  0  0  0  0  0  0  0  0  0
  165.2767  148.4135  126.7722 C   0  0  1  0  0  0  0  0  0  0  0  0
  166.0772  147.1325  126.8564 C   0  0  0  0  0  0  0  0  0  0  0  0
  159.9625  147.3761  128.2660 C   0  0  0  0  0  0  0  0  0  0  0  0
  160.5907  148.2489  129.1500 O   0  0  0  0  0  0  0  0  0  0  0  0
  158.7097  147.3050  128.3418 O   0  0  0  0  0  0  0  0  0  0  0  0
  170.1311  150.1833  128.6878 C   0  0  0  0  0  0  0  0  0  0  0  0
  171.0827  149.6530  127.5998 C   0  0  0  0  0  0  0  0  0  0  0  0
  170.4689  151.6026  128.9061 C   0  0  0  0  0  0  0  0  0  0  0  0
  1  2  1  0
  2  3  2  0
  2  4  1  0
  5  4  1  1
  5  6  1  0
  6  7  1  0
  7  8  1  0
  8  9  1  1
  8 10  1  0
 10 11  1  6
 11 12  1  0
 12 13  1  0
 13 14  1  1
 13 15  1  0
 15 16  1  1
 16 17  2  0
 16 18  1  0
 18 19  2  0
 19 20  1  0
 20 21  1  6
 21 22  1  0
 22 23  1  6
 22 24  1  0
 24 25  1  0
 25 26  1  0
 26 27  1  6
 26 28  1  0
 28 29  1  0
 29 30  1  0
 30 31  1  6
 22 32  1  0
 32 33  1  0
 32 34  2  0
 10 35  1  0
 35 36  1  0
 35 37  1  0
 35  5  1  0
 15  8  1  0
 30 19  1  0
 30 13  1  0
 26 20  1  0
M  END
$$$$
