
     RDKit          3D

 37 41  0  0  0  0  0  0  0  0999 V2000
  144.4827  173.1661  125.4141 C   0  0  0  0  0  0  0  0  0  0  0  0
  144.5968  171.7165  125.0508 C   0  0  0  0  0  0  0  0  0  0  0  0
  143.6869  171.0931  124.4527 O   0  0  0  0  0  0  0  0  0  0  0  0
  145.7272  170.9768  125.3594 O   0  0  0  0  0  0  0  0  0  0  0  0
  146.1615  170.7822  126.6557 C   0  0  1  0  0  0  0  0  0  0  0  0
  145.8897  171.8794  127.6145 C   0  0  0  0  0  0  0  0  0  0  0  0
  146.6829  171.6847  128.8877 C   0  0  0  0  0  0  0  0  0  0  0  0
  146.4530  170.3325  129.5189 C   0  0  1  0  0  0  0  0  0  0  0  0
  145.1755  170.4491  130.3183 C   0  0  0  0  0  0  0  0  0  0  0  0
  146.4042  169.2269  128.4969 C   0  0  1  0  0  0  0  0  0  0  0  0
  146.0529  167.9272  129.1788 C   0  0  0  0  0  0  0  0  0  0  0  0
  147.1033  167.5546  130.1841 C   0  0  0  0  0  0  0  0  0  0  0  0
  147.6241  168.6552  131.0125 C   0  0  2  0  0  0  0  0  0  0  0  0
  146.8540  168.7639  132.3274 C   0  0  0  0  0  0  0  0  0  0  0  0
  147.6516  170.0143  130.3689 C   0  0  2  0  0  0  0  0  0  0  0  0
  148.0115  170.9891  131.3912 C   0  0  0  0  0  0  0  0  0  0  0  0
  147.6817  172.2003  131.4173 O   0  0  0  0  0  0  0  0  0  0  0  0
  148.8379  170.5117  132.4960 C   0  0  0  0  0  0  0  0  0  0  0  0
  149.3566  169.2895  132.5460 C   0  0  0  0  0  0  0  0  0  0  0  0
  150.1705  168.9383  133.7175 C   0  0  2  0  0  0  0  0  0  0  0  0
  151.5135  169.6820  133.7231 C   0  0  0  0  0  0  0  0  0  0  0  0
  152.0879  169.6236  135.1286 C   0  0  2  0  0  0  0  0  0  0  0  0
  153.5661  170.0053  135.0503 C   0  0  0  0  0  0  0  0  0  0  0  0
  152.0276  168.2324  135.6982 C   0  0  0  0  0  0  0  0  0  0  0  0
  151.8172  167.2704  134.5745 C   0  0  0  0  0  0  0  0  0  0  0  0
  150.4491  167.4960  133.9061 C   0  0  1  0  0  0  0  0  0  0  0  0
  149.4306  166.9012  134.8721 C   0  0  0  0  0  0  0  0  0  0  0  0
  150.4763  166.6978  132.6514 C   0  0  0  0  0  0  0  0  0  0  0  0
  149.2193  166.9156  131.8498 C   0  0  0  0  0  0  0  0  0  0  0  0
  149.0742  168.3692  131.4160 C   0  0  1  0  0  0  0  0  0  0  0  0
  150.0191  168.5546  130.2490 C   0  0  0  0  0  0  0  0  0  0  0  0
  151.3998  170.5444  136.0429 C   0  0  0  0  0  0  0  0  0  0  0  0
  151.7211  170.6205  137.3953 O   0  0  0  0  0  0  0  0  0  0  0  0
  150.4859  171.3071  135.6390 O   0  0  0  0  0  0  0  0  0  0  0  0
  145.6195  169.4903  127.2716 C   0  0  0  0  0  0  0  0  0  0  0  0
  146.0145  168.3974  126.2615 C   0  0  0  0  0  0  0  0  0  0  0  0
  144.1491  169.4636  127.3874 C   0  0  0  0  0  0  0  0  0  0  0  0
  1  2  1  0
  2  3  2  0
  2  4  1  0
  5  4  1  6
  5  6  1  0
  6  7  1  0
  7  8  1  0
  8  9  1  1
  8 10  1  0
 10 11  1  1
 11 12  1  0
 12 13  1  0
 13 14  1  1
 13 15  1  0
 15 16  1  1
 16 17  2  0
 16 18  1  0
 18 19  2  0
 19 20  1  0
 20 21  1  6
 21 22  1  0
 22 23  1  6
 22 24  1  0
 24 25  1  0
 25 26  1  0
 26 27  1  1
 26 28  1  0
 28 29  1  0
 29 30  1  0
 30 31  1  6
 22 32  1  0
 32 33  1  0
 32 34  2  0
 10 35  1  0
 35 36  1  0
 35 37  1  0
 35  5  1  0
 15  8  1  0
 30 19  1  0
 30 13  1  0
 26 20  1  0
M  END
$$$$
