
     RDKit          3D

 37 41  0  0  0  0  0  0  0  0999 V2000
  126.2157  143.0208  138.0226 C   0  0  0  0  0  0  0  0  0  0  0  0
  127.5953  143.5902  138.1591 C   0  0  0  0  0  0  0  0  0  0  0  0
  127.8083  144.7780  138.5028 O   0  0  0  0  0  0  0  0  0  0  0  0
  128.7246  142.8267  137.9102 O   0  0  0  0  0  0  0  0  0  0  0  0
  128.9008  142.1130  136.7413 C   0  0  1  0  0  0  0  0  0  0  0  0
  127.8734  141.0906  136.4310 C   0  0  0  0  0  0  0  0  0  0  0  0
  128.3450  140.1799  135.3191 C   0  0  0  0  0  0  0  0  0  0  0  0
  128.7607  140.9363  134.0803 C   0  0  1  0  0  0  0  0  0  0  0  0
  127.4901  141.2307  133.3165 C   0  0  0  0  0  0  0  0  0  0  0  0
  129.5471  142.1788  134.4077 C   0  0  1  0  0  0  0  0  0  0  0  0
  129.8249  142.9468  133.1385 C   0  0  0  0  0  0  0  0  0  0  0  0
  130.6600  142.1300  132.1961 C   0  0  0  0  0  0  0  0  0  0  0  0
  130.3002  140.7065  132.0821 C   0  0  2  0  0  0  0  0  0  0  0  0
  129.3323  140.4765  130.9226 C   0  0  0  0  0  0  0  0  0  0  0  0
  129.7196  140.0682  133.3140 C   0  0  2  0  0  0  0  0  0  0  0  0
  129.2563  138.7339  132.9537 C   0  0  0  0  0  0  0  0  0  0  0  0
  128.3222  138.0954  133.4979 O   0  0  0  0  0  0  0  0  0  0  0  0
  129.9458  138.0718  131.8502 C   0  0  0  0  0  0  0  0  0  0  0  0
  131.0222  138.5735  131.2545 C   0  0  0  0  0  0  0  0  0  0  0  0
  131.6182  137.8030  130.1549 C   0  0  2  0  0  0  0  0  0  0  0  0
  132.2971  136.5215  130.6583 C   0  0  0  0  0  0  0  0  0  0  0  0
  132.4886  135.5847  129.4773 C   0  0  2  0  0  0  0  0  0  0  0  0
  133.4929  134.5076  129.8875 C   0  0  0  0  0  0  0  0  0  0  0  0
  133.0762  136.2976  128.2898 C   0  0  0  0  0  0  0  0  0  0  0  0
  133.6754  137.5832  128.7593 C   0  0  0  0  0  0  0  0  0  0  0  0
  132.5905  138.5287  129.3056 C   0  0  1  0  0  0  0  0  0  0  0  0
  131.8819  139.0771  128.0721 C   0  0  0  0  0  0  0  0  0  0  0  0
  133.3211  139.6263  129.9940 C   0  0  0  0  0  0  0  0  0  0  0  0
  132.3592  140.5739  130.6627 C   0  0  0  0  0  0  0  0  0  0  0  0
  131.5419  139.8755  131.7427 C   0  0  1  0  0  0  0  0  0  0  0  0
  132.4583  139.7382  132.9387 C   0  0  0  0  0  0  0  0  0  0  0  0
  131.2305  134.9428  129.0746 C   0  0  0  0  0  0  0  0  0  0  0  0
  131.2041  133.7162  128.4168 O   0  0  0  0  0  0  0  0  0  0  0  0
  130.1176  135.4784  129.3091 O   0  0  0  0  0  0  0  0  0  0  0  0
  129.0344  143.0163  135.5131 C   0  0  0  0  0  0  0  0  0  0  0  0
  130.1703  143.9879  135.8826 C   0  0  0  0  0  0  0  0  0  0  0  0
  127.8344  143.8321  135.2475 C   0  0  0  0  0  0  0  0  0  0  0  0
  1  2  1  0
  2  3  2  0
  2  4  1  0
  5  4  1  1
  5  6  1  0
  6  7  1  0
  7  8  1  0
  8  9  1  6
  8 10  1  0
 10 11  1  6
 11 12  1  0
 12 13  1  0
 13 14  1  6
 13 15  1  0
 15 16  1  6
 16 17  2  0
 16 18  1  0
 18 19  2  0
 19 20  1  0
 20 21  1  1
 21 22  1  0
 22 23  1  1
 22 24  1  0
 24 25  1  0
 25 26  1  0
 26 27  1  6
 26 28  1  0
 28 29  1  0
 29 30  1  0
 30 31  1  1
 22 32  1  0
 32 33  1  0
 32 34  2  0
 10 35  1  0
 35 36  1  0
 35 37  1  0
 35  5  1  0
 15  8  1  0
 30 19  1  0
 30 13  1  0
 26 20  1  0
M  END
$$$$
