
     RDKit          3D

 37 41  0  0  0  0  0  0  0  0999 V2000
  150.9969  169.5107  137.0739 C   0  0  0  0  0  0  0  0  0  0  0  0
  149.6292  170.0816  137.2972 C   0  0  0  0  0  0  0  0  0  0  0  0
  149.0816  170.1099  138.4257 O   0  0  0  0  0  0  0  0  0  0  0  0
  148.8860  170.6159  136.2569 O   0  0  0  0  0  0  0  0  0  0  0  0
  148.7665  169.9956  135.0289 C   0  0  1  0  0  0  0  0  0  0  0  0
  149.9418  169.2216  134.5634 C   0  0  0  0  0  0  0  0  0  0  0  0
  149.8042  168.8711  133.0983 C   0  0  0  0  0  0  0  0  0  0  0  0
  148.5134  168.1521  132.7878 C   0  0  1  0  0  0  0  0  0  0  0  0
  148.7460  166.6975  133.1264 C   0  0  0  0  0  0  0  0  0  0  0  0
  147.3398  168.7432  133.5243 C   0  0  1  0  0  0  0  0  0  0  0  0
  146.1105  167.9071  133.2646 C   0  0  0  0  0  0  0  0  0  0  0  0
  145.7645  167.9118  131.8041 C   0  0  0  0  0  0  0  0  0  0  0  0
  146.8974  167.7898  130.8713 C   0  0  2  0  0  0  0  0  0  0  0  0
  147.1365  166.3308  130.4865 C   0  0  0  0  0  0  0  0  0  0  0  0
  148.2035  168.3751  131.3337 C   0  0  2  0  0  0  0  0  0  0  0  0
  149.2326  167.9926  130.3748 C   0  0  0  0  0  0  0  0  0  0  0  0
  150.4563  167.8425  130.6125 O   0  0  0  0  0  0  0  0  0  0  0  0
  148.7996  167.7603  129.0000 C   0  0  0  0  0  0  0  0  0  0  0  0
  147.5619  167.9894  128.5747 C   0  0  0  0  0  0  0  0  0  0  0  0
  147.2600  167.7120  127.1640 C   0  0  2  0  0  0  0  0  0  0  0  0
  147.9401  168.7192  126.2260 C   0  0  0  0  0  0  0  0  0  0  0  0
  147.9579  168.1326  124.8244 C   0  0  2  0  0  0  0  0  0  0  0  0
  148.2650  169.2640  123.8434 C   0  0  0  0  0  0  0  0  0  0  0  0
  146.6160  167.5733  124.4370 C   0  0  0  0  0  0  0  0  0  0  0  0
  145.5854  168.1338  125.3624 C   0  0  0  0  0  0  0  0  0  0  0  0
  145.8241  167.6556  126.8059 C   0  0  1  0  0  0  0  0  0  0  0  0
  145.3481  166.2075  126.8300 C   0  0  0  0  0  0  0  0  0  0  0  0
  144.9363  168.4898  127.6594 C   0  0  0  0  0  0  0  0  0  0  0  0
  145.1524  168.1831  129.1186 C   0  0  0  0  0  0  0  0  0  0  0  0
  146.5757  168.5069  129.5561 C   0  0  1  0  0  0  0  0  0  0  0  0
  146.6325  170.0101  129.7185 C   0  0  0  0  0  0  0  0  0  0  0  0
  148.9731  167.0809  124.6810 C   0  0  0  0  0  0  0  0  0  0  0  0
  149.0601  166.2883  123.5398 O   0  0  0  0  0  0  0  0  0  0  0  0
  149.8114  166.8516  125.5893 O   0  0  0  0  0  0  0  0  0  0  0  0
  147.5489  169.0717  134.9507 C   0  0  0  0  0  0  0  0  0  0  0  0
  146.3686  169.9692  135.3656 C   0  0  0  0  0  0  0  0  0  0  0  0
  147.5978  167.9492  135.9066 C   0  0  0  0  0  0  0  0  0  0  0  0
  1  2  1  0
  2  3  2  0
  2  4  1  0
  5  4  1  1
  5  6  1  0
  6  7  1  0
  7  8  1  0
  8  9  1  6
  8 10  1  0
 10 11  1  1
 11 12  1  0
 12 13  1  0
 13 14  1  6
 13 15  1  0
 15 16  1  6
 16 17  2  0
 16 18  1  0
 18 19  2  0
 19 20  1  0
 20 21  1  6
 21 22  1  0
 22 23  1  6
 22 24  1  0
 24 25  1  0
 25 26  1  0
 26 27  1  6
 26 28  1  0
 28 29  1  0
 29 30  1  0
 30 31  1  1
 22 32  1  0
 32 33  1  0
 32 34  2  0
 10 35  1  0
 35 36  1  0
 35 37  1  0
 35  5  1  0
 15  8  1  0
 30 19  1  0
 30 13  1  0
 26 20  1  0
M  END
$$$$
