
     RDKit          3D

 37 41  0  0  0  0  0  0  0  0999 V2000
  186.2727  167.0115  118.6285 C   0  0  0  0  0  0  0  0  0  0  0  0
  187.0279  166.4686  119.8037 C   0  0  0  0  0  0  0  0  0  0  0  0
  187.2730  165.2464  119.9470 O   0  0  0  0  0  0  0  0  0  0  0  0
  187.5022  167.2967  120.8083 O   0  0  0  0  0  0  0  0  0  0  0  0
  187.9782  168.5699  120.5642 C   0  0  1  0  0  0  0  0  0  0  0  0
  188.6568  168.7826  119.2637 C   0  0  0  0  0  0  0  0  0  0  0  0
  189.3983  170.1010  119.2576 C   0  0  0  0  0  0  0  0  0  0  0  0
  188.5136  171.2712  119.6149 C   0  0  1  0  0  0  0  0  0  0  0  0
  187.7897  171.6588  118.3460 C   0  0  0  0  0  0  0  0  0  0  0  0
  187.5751  170.9512  120.7489 C   0  0  1  0  0  0  0  0  0  0  0  0
  186.6421  172.1162  120.9732 C   0  0  0  0  0  0  0  0  0  0  0  0
  187.4110  173.3433  121.3678 C   0  0  0  0  0  0  0  0  0  0  0  0
  188.6619  173.5871  120.6300 C   0  0  2  0  0  0  0  0  0  0  0  0
  188.4229  174.5066  119.4336 C   0  0  0  0  0  0  0  0  0  0  0  0
  189.3957  172.3664  120.1467 C   0  0  2  0  0  0  0  0  0  0  0  0
  190.4874  172.8083  119.2876 C   0  0  0  0  0  0  0  0  0  0  0  0
  190.9992  172.1641  118.3392 O   0  0  0  0  0  0  0  0  0  0  0  0
  191.0428  174.1318  119.5549 C   0  0  0  0  0  0  0  0  0  0  0  0
  190.6825  174.8800  120.5920 C   0  0  0  0  0  0  0  0  0  0  0  0
  191.3210  176.1945  120.7430 C   0  0  2  0  0  0  0  0  0  0  0  0
  192.7980  176.0691  121.1422 C   0  0  0  0  0  0  0  0  0  0  0  0
  193.4872  177.3916  120.8512 C   0  0  2  0  0  0  0  0  0  0  0  0
  194.8231  177.4009  121.5944 C   0  0  0  0  0  0  0  0  0  0  0  0
  192.6932  178.5599  121.3693 C   0  0  0  0  0  0  0  0  0  0  0  0
  191.7011  178.0527  122.3648 C   0  0  0  0  0  0  0  0  0  0  0  0
  190.6713  177.1270  121.6926 C   0  0  1  0  0  0  0  0  0  0  0  0
  189.7339  178.0588  120.9328 C   0  0  0  0  0  0  0  0  0  0  0  0
  189.9332  176.4698  122.8041 C   0  0  0  0  0  0  0  0  0  0  0  0
  188.9545  175.4553  122.2720 C   0  0  0  0  0  0  0  0  0  0  0  0
  189.6609  174.3337  121.5201 C   0  0  1  0  0  0  0  0  0  0  0  0
  190.2457  173.4236  122.5777 C   0  0  0  0  0  0  0  0  0  0  0  0
  193.7327  177.5800  119.4155 C   0  0  0  0  0  0  0  0  0  0  0  0
  194.4552  178.6643  118.9252 O   0  0  0  0  0  0  0  0  0  0  0  0
  193.2973  176.7641  118.5640 O   0  0  0  0  0  0  0  0  0  0  0  0
  186.8927  169.6406  120.6956 C   0  0  0  0  0  0  0  0  0  0  0  0
  186.2990  169.4044  122.0965 C   0  0  0  0  0  0  0  0  0  0  0  0
  185.7917  169.4866  119.7258 C   0  0  0  0  0  0  0  0  0  0  0  0
  1  2  1  0
  2  3  2  0
  2  4  1  0
  5  4  1  6
  5  6  1  0
  6  7  1  0
  7  8  1  0
  8  9  1  6
  8 10  1  0
 10 11  1  6
 11 12  1  0
 12 13  1  0
 13 14  1  6
 13 15  1  0
 15 16  1  6
 16 17  2  0
 16 18  1  0
 18 19  2  0
 19 20  1  0
 20 21  1  1
 21 22  1  0
 22 23  1  1
 22 24  1  0
 24 25  1  0
 25 26  1  0
 26 27  1  6
 26 28  1  0
 28 29  1  0
 29 30  1  0
 30 31  1  1
 22 32  1  0
 32 33  1  0
 32 34  2  0
 10 35  1  0
 35 36  1  0
 35 37  1  0
 35  5  1  0
 15  8  1  0
 30 19  1  0
 30 13  1  0
 26 20  1  0
M  END
$$$$
