
 OpenBabel01122422353D

 42 45  0  0  0  0  0  0  0  0999 V2000
    0.9323   -0.0714   -0.0177 N   0  0  0  0  0  0  0  0  0  0  0  0
    2.1933   -0.0714   -0.0177 C   0  0  0  0  0  0  0  0  0  0  0  0
    3.7133   -0.0714   -0.0177 C   0  0  0  0  0  0  0  0  0  0  0  0
    4.4019    1.1049   -0.0373 C   0  0  0  0  0  0  0  0  0  0  0  0
    3.7981    2.3714   -0.1862 N   0  0  0  0  0  0  0  0  0  0  0  0
    4.4195    3.6239   -0.2159 C   0  0  0  0  0  0  0  0  0  0  0  0
    5.6215    3.8274   -0.0745 O   0  0  0  0  0  0  0  0  0  0  0  0
    3.4998    4.8078   -0.4092 C   0  0  0  0  0  0  0  0  0  0  0  0
    4.0695    6.0281   -0.4087 C   0  0  0  0  0  0  0  0  0  0  0  0
    3.2226    7.2275   -0.4672 C   0  0  0  0  0  0  0  0  0  0  0  0
    3.7079    8.3538   -0.5327 O   0  0  0  0  0  0  0  0  0  0  0  0
    1.7753    7.0000   -0.3994 C   0  0  0  0  0  0  0  0  0  0  0  0
    0.8904    8.0662   -0.2286 C   0  0  0  0  0  0  0  0  0  0  0  0
   -0.4688    7.8020   -0.1415 C   0  0  0  0  0  0  0  0  0  0  0  0
   -1.3275    8.8066    0.0755 F   0  0  0  0  0  0  0  0  0  0  0  0
   -0.9566    6.5021   -0.2605 C   0  0  0  0  0  0  0  0  0  0  0  0
   -0.0654    5.4387   -0.4372 C   0  0  0  0  0  0  0  0  0  0  0  0
    1.3055    5.6841   -0.4738 C   0  0  0  0  0  0  0  0  0  0  0  0
    2.1379    4.5884   -0.5420 O   0  0  0  0  0  0  0  0  0  0  0  0
    5.8434    1.0202    0.1164 C   0  0  0  0  0  0  0  0  0  0  0  0
    6.4750   -0.1539    0.1631 C   0  0  0  0  0  0  0  0  0  0  0  0
    5.7949   -1.3559    0.1073 N   0  0  0  0  0  0  0  0  0  0  0  0
    6.5137   -2.5816    0.0327 C   0  0  0  0  0  0  0  0  0  0  0  0
    7.5725   -2.7122   -0.8756 C   0  0  0  0  0  0  0  0  0  0  0  0
    8.2064   -3.9394   -1.0416 C   0  0  0  0  0  0  0  0  0  0  0  0
    7.8196   -5.0330   -0.2675 C   0  0  0  0  0  0  0  0  0  0  0  0
    6.8011   -4.8995    0.6730 C   0  0  0  0  0  0  0  0  0  0  0  0
    6.1426   -3.6793    0.8167 C   0  0  0  0  0  0  0  0  0  0  0  0
    4.3924   -1.3930    0.0453 C   0  0  0  0  0  0  0  0  0  0  0  0
    3.7065   -2.4121   -0.0218 O   0  0  0  0  0  0  0  0  0  0  0  0
    2.7898    2.3984   -0.3223 H   0  0  0  0  0  0  0  0  0  0  0  0
    5.1371    6.2003   -0.3241 H   0  0  0  0  0  0  0  0  0  0  0  0
    1.2483    9.0904   -0.1372 H   0  0  0  0  0  0  0  0  0  0  0  0
   -2.0259    6.3239   -0.1975 H   0  0  0  0  0  0  0  0  0  0  0  0
   -0.4451    4.4246   -0.5211 H   0  0  0  0  0  0  0  0  0  0  0  0
    6.4564    1.9036    0.2314 H   0  0  0  0  0  0  0  0  0  0  0  0
    7.5540   -0.1910    0.2956 H   0  0  0  0  0  0  0  0  0  0  0  0
    7.8578   -1.8825   -1.5202 H   0  0  0  0  0  0  0  0  0  0  0  0
    8.9840   -4.0523   -1.7927 H   0  0  0  0  0  0  0  0  0  0  0  0
    8.3043   -5.9961   -0.4068 H   0  0  0  0  0  0  0  0  0  0  0  0
    6.5018   -5.7468    1.2827 H   0  0  0  0  0  0  0  0  0  0  0  0
    5.3430   -3.5925    1.5493 H   0  0  0  0  0  0  0  0  0  0  0  0
  1  2  3  0  0  0  0
  2  3  1  0  0  0  0
  3  4  2  0  0  0  0
  3 29  1  0  0  0  0
  4  5  1  0  0  0  0
  4 20  1  0  0  0  0
  5  6  1  0  0  0  0
  5 31  1  0  0  0  0
  6  7  2  0  0  0  0
  6  8  1  0  0  0  0
  8  9  2  0  0  0  0
  8 19  1  0  0  0  0
  9 10  1  0  0  0  0
  9 32  1  0  0  0  0
 10 11  2  0  0  0  0
 10 12  1  0  0  0  0
 12 13  2  0  0  0  0
 12 18  1  0  0  0  0
 13 14  1  0  0  0  0
 13 33  1  0  0  0  0
 14 15  1  0  0  0  0
 14 16  2  0  0  0  0
 16 17  1  0  0  0  0
 16 34  1  0  0  0  0
 17 18  2  0  0  0  0
 17 35  1  0  0  0  0
 18 19  1  0  0  0  0
 20 21  2  0  0  0  0
 20 36  1  0  0  0  0
 21 22  1  0  0  0  0
 21 37  1  0  0  0  0
 22 23  1  0  0  0  0
 22 29  1  0  0  0  0
 23 24  2  0  0  0  0
 23 28  1  0  0  0  0
 24 25  1  0  0  0  0
 24 38  1  0  0  0  0
 25 26  2  0  0  0  0
 25 39  1  0  0  0  0
 26 27  1  0  0  0  0
 26 40  1  0  0  0  0
 27 28  2  0  0  0  0
 27 41  1  0  0  0  0
 28 42  1  0  0  0  0
 29 30  2  0  0  0  0
M  END
$$$$
