
 OpenBabel01122422353D

 50 53  0  0  0  0  0  0  0  0999 V2000
    4.2026    0.1425    2.8522 N   0  0  0  0  0  0  0  0  0  0  0  0
    3.2530    0.7680    2.0987 C   0  0  0  0  0  0  0  0  0  0  0  0
    2.1226    0.9326    2.5538 O   0  0  0  0  0  0  0  0  0  0  0  0
    3.6291    1.1663    0.6609 C   0  0  0  0  0  0  0  0  0  0  0  0
    5.0472    0.9972    0.2865 N   0  0  0  0  0  0  0  0  0  0  0  0
    5.3970   -0.2397   -0.4018 C   0  0  0  0  0  0  0  0  0  0  0  0
    5.1825   -0.2698   -1.9028 C   0  0  0  0  0  0  0  0  0  0  0  0
    6.1566    0.1931   -2.7952 C   0  0  0  0  0  0  0  0  0  0  0  0
    6.0535   -0.0585   -4.1772 C   0  0  0  0  0  0  0  0  0  0  0  0
    4.9774   -0.7797   -4.7229 C   0  0  0  0  0  0  0  0  0  0  0  0
    4.9206   -1.1590   -6.1640 C   0  0  0  0  0  0  0  0  0  0  0  0
    6.0864   -1.4370   -6.9057 C   0  0  0  0  0  0  0  0  0  0  0  0
    6.0308   -1.8301   -8.2514 C   0  0  0  0  0  0  0  0  0  0  0  0
    4.8031   -1.9673   -8.8889 C   0  0  0  0  0  0  0  0  0  0  0  0
    3.6341   -1.7042   -8.1847 C   0  0  0  0  0  0  0  0  0  0  0  0
    3.6953   -1.2986   -6.8443 C   0  0  0  0  0  0  0  0  0  0  0  0
    3.9689   -1.1662   -3.8223 C   0  0  0  0  0  0  0  0  0  0  0  0
    4.0604   -0.9076   -2.4442 C   0  0  0  0  0  0  0  0  0  0  0  0
    5.8880    2.0628    0.6028 C   0  0  0  0  0  0  0  0  0  0  0  0
    5.4198    3.0392    1.1912 O   0  0  0  0  0  0  0  0  0  0  0  0
    7.2972    2.1034    0.2583 C   0  0  0  0  0  0  0  0  0  0  0  0
    8.3408    1.1975    0.1565 C   0  0  0  0  0  0  0  0  0  0  0  0
    9.5556    1.9210   -0.0635 C   0  0  0  0  0  0  0  0  0  0  0  0
   10.9111    1.5615   -0.1943 C   0  0  0  0  0  0  0  0  0  0  0  0
   11.8636    2.5755   -0.3255 C   0  0  0  0  0  0  0  0  0  0  0  0
   13.1590    2.2449   -0.4219 F   0  0  0  0  0  0  0  0  0  0  0  0
   11.5092    3.9189   -0.3426 C   0  0  0  0  0  0  0  0  0  0  0  0
   10.1697    4.2956   -0.2363 C   0  0  0  0  0  0  0  0  0  0  0  0
    9.2254    3.2723   -0.0949 C   0  0  0  0  0  0  0  0  0  0  0  0
    7.8679    3.3489    0.0654 N   0  0  0  0  0  0  0  0  0  0  0  0
    3.9649    0.0001    3.8281 H   0  0  0  0  0  0  0  0  0  0  0  0
    5.1793    0.2419    2.6209 H   0  0  0  0  0  0  0  0  0  0  0  0
    3.3468    2.2199    0.5472 H   0  0  0  0  0  0  0  0  0  0  0  0
    3.0014    0.5858   -0.0213 H   0  0  0  0  0  0  0  0  0  0  0  0
    4.8118   -1.0462    0.0596 H   0  0  0  0  0  0  0  0  0  0  0  0
    6.4299   -0.5117   -0.1996 H   0  0  0  0  0  0  0  0  0  0  0  0
    7.0409    0.7098   -2.4309 H   0  0  0  0  0  0  0  0  0  0  0  0
    6.8554    0.2998   -4.8209 H   0  0  0  0  0  0  0  0  0  0  0  0
    7.0673   -1.3751   -6.4397 H   0  0  0  0  0  0  0  0  0  0  0  0
    6.9489   -2.0379   -8.7959 H   0  0  0  0  0  0  0  0  0  0  0  0
    4.7569   -2.2804   -9.9290 H   0  0  0  0  0  0  0  0  0  0  0  0
    2.6695   -1.8149   -8.6736 H   0  0  0  0  0  0  0  0  0  0  0  0
    2.7558   -1.0911   -6.3380 H   0  0  0  0  0  0  0  0  0  0  0  0
    3.1068   -1.7308   -4.1722 H   0  0  0  0  0  0  0  0  0  0  0  0
    3.2649   -1.2711   -1.7969 H   0  0  0  0  0  0  0  0  0  0  0  0
    8.2937    0.1281    0.3015 H   0  0  0  0  0  0  0  0  0  0  0  0
   11.2301    0.5258   -0.1716 H   0  0  0  0  0  0  0  0  0  0  0  0
   12.2839    4.6756   -0.4281 H   0  0  0  0  0  0  0  0  0  0  0  0
    9.8800    5.3423   -0.2416 H   0  0  0  0  0  0  0  0  0  0  0  0
    7.3378    4.2084    0.1193 H   0  0  0  0  0  0  0  0  0  0  0  0
  1  2  1  0  0  0  0
  1 31  1  0  0  0  0
  1 32  1  0  0  0  0
  2  3  2  0  0  0  0
  2  4  1  0  0  0  0
  4  5  1  0  0  0  0
  4 33  1  0  0  0  0
  4 34  1  0  0  0  0
  5  6  1  0  0  0  0
  5 19  1  0  0  0  0
  6  7  1  0  0  0  0
  6 35  1  0  0  0  0
  6 36  1  0  0  0  0
  7  8  2  0  0  0  0
  7 18  1  0  0  0  0
  8  9  1  0  0  0  0
  8 37  1  0  0  0  0
  9 10  2  0  0  0  0
  9 38  1  0  0  0  0
 10 11  1  0  0  0  0
 10 17  1  0  0  0  0
 11 12  2  0  0  0  0
 11 16  1  0  0  0  0
 12 13  1  0  0  0  0
 12 39  1  0  0  0  0
 13 14  2  0  0  0  0
 13 40  1  0  0  0  0
 14 15  1  0  0  0  0
 14 41  1  0  0  0  0
 15 16  2  0  0  0  0
 15 42  1  0  0  0  0
 16 43  1  0  0  0  0
 17 18  2  0  0  0  0
 17 44  1  0  0  0  0
 18 45  1  0  0  0  0
 19 20  2  0  0  0  0
 19 21  1  0  0  0  0
 21 22  2  0  0  0  0
 21 30  1  0  0  0  0
 22 23  1  0  0  0  0
 22 46  1  0  0  0  0
 23 24  2  0  0  0  0
 23 29  1  0  0  0  0
 24 25  1  0  0  0  0
 24 47  1  0  0  0  0
 25 26  1  0  0  0  0
 25 27  2  0  0  0  0
 27 28  1  0  0  0  0
 27 48  1  0  0  0  0
 28 29  2  0  0  0  0
 28 49  1  0  0  0  0
 29 30  1  0  0  0  0
 30 50  1  0  0  0  0
M  END
$$$$
