
 OpenBabel01122422353D

 49 52  0  0  1  0  0  0  0  0999 V2000
    2.3059    1.2417   -0.8096 C   0  0  0  0  0  0  0  0  0  0  0  0
    2.3509    0.0531    0.0355 N   0  0  0  0  0  0  0  0  0  0  0  0
    1.8316    0.0995    1.3332 C   0  0  0  0  0  0  0  0  0  0  0  0
    1.4128    1.1425    1.8432 O   0  0  0  0  0  0  0  0  0  0  0  0
    1.7121   -1.2014    2.0911 C   0  0  0  0  0  0  0  0  0  0  0  0
    1.5905   -1.1534    3.4221 C   0  0  0  0  0  0  0  0  0  0  0  0
    1.5128   -2.4112    4.1925 C   0  0  0  0  0  0  0  0  0  0  0  0
    1.4033   -2.3540    5.4098 O   0  0  0  0  0  0  0  0  0  0  0  0
    1.6111   -3.6737    3.4195 C   0  0  0  0  0  0  0  0  0  0  0  0
    1.7238   -3.5699    2.0342 C   0  0  0  0  0  0  0  0  0  0  0  0
    1.8597   -4.7058    1.2314 C   0  0  0  0  0  0  0  0  0  0  0  0
    1.8562   -5.9707    1.8118 C   0  0  0  0  0  0  0  0  0  0  0  0
    1.7193   -6.0913    3.1936 C   0  0  0  0  0  0  0  0  0  0  0  0
    1.6029   -4.9495    3.9961 C   0  0  0  0  0  0  0  0  0  0  0  0
    1.4762   -5.1085    5.3460 O   0  0  0  0  0  0  0  0  0  0  0  0
    1.6948   -2.3771    1.3666 O   0  0  0  0  0  0  0  0  0  0  0  0
    3.1349   -1.0185   -0.4667 C   0  0  0  0  0  0  0  0  0  0  0  0
    2.7249   -1.6828   -1.6258 C   0  0  0  0  0  0  0  0  0  0  0  0
    3.4391   -2.7905   -2.0788 C   0  0  0  0  0  0  0  0  0  0  0  0
    4.5966   -3.1987   -1.4150 C   0  0  0  0  0  0  0  0  0  0  0  0
    5.0520   -2.5091   -0.2763 C   0  0  0  0  0  0  0  0  0  0  0  0
    6.3967   -2.8272    0.3647 C   0  0  3  0  0  0  0  0  0  0  0  0
    6.4344   -4.1824    0.8100 O   0  0  0  0  0  0  0  0  0  0  0  0
    7.5555   -2.5117   -0.5717 C   0  0  0  0  0  0  0  0  0  0  0  0
    7.7150   -1.1997   -1.0569 C   0  0  0  0  0  0  0  0  0  0  0  0
    8.7213   -0.8891   -1.9712 C   0  0  0  0  0  0  0  0  0  0  0  0
    9.5961   -1.8817   -2.4036 C   0  0  0  0  0  0  0  0  0  0  0  0
    9.4717   -3.1791   -1.9121 C   0  0  0  0  0  0  0  0  0  0  0  0
    8.4618   -3.4927   -1.0011 C   0  0  0  0  0  0  0  0  0  0  0  0
    4.2946   -1.4269    0.2024 C   0  0  0  0  0  0  0  0  0  0  0  0
    1.8106    2.0790   -0.3044 H   0  0  0  0  0  0  0  0  0  0  0  0
    1.7455    1.0177   -1.7251 H   0  0  0  0  0  0  0  0  0  0  0  0
    3.3221    1.5482   -1.0625 H   0  0  0  0  0  0  0  0  0  0  0  0
    1.5552   -0.2292    3.9883 H   0  0  0  0  0  0  0  0  0  0  0  0
    1.9662   -4.6000    0.1547 H   0  0  0  0  0  0  0  0  0  0  0  0
    1.9536   -6.8543    1.1893 H   0  0  0  0  0  0  0  0  0  0  0  0
    1.7074   -7.0859    3.6324 H   0  0  0  0  0  0  0  0  0  0  0  0
    1.4816   -6.0504    5.5761 H   0  0  0  0  0  0  0  0  0  0  0  0
    1.8193   -1.3830   -2.1435 H   0  0  0  0  0  0  0  0  0  0  0  0
    3.0967   -3.3317   -2.9580 H   0  0  0  0  0  0  0  0  0  0  0  0
    5.1606   -4.0359   -1.8165 H   0  0  0  0  0  0  0  0  0  0  0  0
    6.5331   -2.2197    1.2679 H   0  0  0  0  0  0  0  0  0  0  0  0
    5.9867   -4.7221    0.1415 H   0  0  0  0  0  0  0  0  0  0  0  0
    7.0374   -0.4097   -0.7382 H   0  0  0  0  0  0  0  0  0  0  0  0
    8.8160    0.1253   -2.3495 H   0  0  0  0  0  0  0  0  0  0  0  0
   10.3760   -1.6427   -3.1209 H   0  0  0  0  0  0  0  0  0  0  0  0
   10.1619   -3.9517   -2.2418 H   0  0  0  0  0  0  0  0  0  0  0  0
    8.3888   -4.5133   -0.6307 H   0  0  0  0  0  0  0  0  0  0  0  0
    4.6354   -0.8759    1.0762 H   0  0  0  0  0  0  0  0  0  0  0  0
  1  2  1  0  0  0  0
  1 31  1  0  0  0  0
  1 32  1  0  0  0  0
  1 33  1  0  0  0  0
  2  3  1  0  0  0  0
  2 17  1  0  0  0  0
  3  4  2  0  0  0  0
  3  5  1  0  0  0  0
  5  6  2  0  0  0  0
  5 16  1  0  0  0  0
  6  7  1  0  0  0  0
  6 34  1  0  0  0  0
  7  8  2  0  0  0  0
  7  9  1  0  0  0  0
  9 10  2  0  0  0  0
  9 14  1  0  0  0  0
 10 11  1  0  0  0  0
 10 16  1  0  0  0  0
 11 12  2  0  0  0  0
 11 35  1  0  0  0  0
 12 13  1  0  0  0  0
 12 36  1  0  0  0  0
 13 14  2  0  0  0  0
 13 37  1  0  0  0  0
 14 15  1  0  0  0  0
 15 38  1  0  0  0  0
 17 18  2  0  0  0  0
 17 30  1  0  0  0  0
 18 19  1  0  0  0  0
 18 39  1  0  0  0  0
 19 20  2  0  0  0  0
 19 40  1  0  0  0  0
 20 21  1  0  0  0  0
 20 41  1  0  0  0  0
 21 22  1  0  0  0  0
 21 30  2  0  0  0  0
 22 23  1  0  0  0  0
 22 24  1  0  0  0  0
 22 42  1  0  0  0  0
 23 43  1  0  0  0  0
 24 25  2  0  0  0  0
 24 29  1  0  0  0  0
 25 26  1  0  0  0  0
 25 44  1  0  0  0  0
 26 27  2  0  0  0  0
 26 45  1  0  0  0  0
 27 28  1  0  0  0  0
 27 46  1  0  0  0  0
 28 29  2  0  0  0  0
 28 47  1  0  0  0  0
 29 48  1  0  0  0  0
 30 49  1  0  0  0  0
M  END
$$$$
