
 OpenBabel01122422353D

 41 44  0  0  0  0  0  0  0  0999 V2000
    1.0019   -0.0555    0.2241 O   0  0  0  0  0  0  0  0  0  0  0  0
    2.2185   -0.1422    0.0871 C   0  0  0  0  0  0  0  0  0  0  0  0
    2.8914   -1.1860   -0.5019 N   0  0  0  0  0  0  0  0  0  0  0  0
    2.2203   -2.2682   -1.0512 C   0  0  0  0  0  0  0  0  0  0  0  0
    0.9468   -2.5732   -0.7773 N   0  0  0  0  0  0  0  0  0  0  0  0
    0.6256   -3.6672   -1.5377 O   0  0  0  0  0  0  0  0  0  0  0  0
    1.7025   -4.0337   -2.2629 C   0  0  0  0  0  0  0  0  0  0  0  0
    2.7695   -3.2106   -1.9733 C   0  0  0  0  0  0  0  0  0  0  0  0
    4.0560   -3.3242   -2.6399 C   0  0  0  0  0  0  0  0  0  0  0  0
    4.5696   -4.5919   -2.9656 C   0  0  0  0  0  0  0  0  0  0  0  0
    5.7754   -4.7117   -3.6592 C   0  0  0  0  0  0  0  0  0  0  0  0
    6.4785   -3.5693   -4.0243 C   0  0  0  0  0  0  0  0  0  0  0  0
    7.6256   -3.6891   -4.7003 F   0  0  0  0  0  0  0  0  0  0  0  0
    6.0028   -2.3067   -3.7008 C   0  0  0  0  0  0  0  0  0  0  0  0
    4.8008   -2.1953   -3.0115 C   0  0  0  0  0  0  0  0  0  0  0  0
    4.3665   -0.9591   -2.7136 F   0  0  0  0  0  0  0  0  0  0  0  0
    3.0578    0.9701    0.5735 C   0  0  0  0  0  0  0  0  0  0  0  0
    2.5596    1.6682    1.5935 C   0  0  0  0  0  0  0  0  0  0  0  0
    3.2538    2.8462    2.1344 C   0  0  0  0  0  0  0  0  0  0  0  0
    2.6845    3.4277    3.0552 O   0  0  0  0  0  0  0  0  0  0  0  0
    4.4659    3.1766    1.5225 N   0  0  0  0  0  0  0  0  0  0  0  0
    5.2451    4.3015    1.9544 C   0  0  0  0  0  0  0  0  0  0  0  0
    5.1265    4.8140    3.2560 C   0  0  0  0  0  0  0  0  0  0  0  0
    5.8297    5.9506    3.6588 C   0  0  0  0  0  0  0  0  0  0  0  0
    6.6712    6.5965    2.7659 C   0  0  0  0  0  0  0  0  0  0  0  0
    6.8341    6.0885    1.4785 C   0  0  0  0  0  0  0  0  0  0  0  0
    6.1395    4.9399    1.0803 C   0  0  0  0  0  0  0  0  0  0  0  0
    4.9792    2.4957    0.4264 N   0  0  0  0  0  0  0  0  0  0  0  0
    4.3127    1.4687    0.0078 C   0  0  0  0  0  0  0  0  0  0  0  0
    3.8873   -1.1501   -0.6587 H   0  0  0  0  0  0  0  0  0  0  0  0
    1.5393   -4.8653   -2.9319 H   0  0  0  0  0  0  0  0  0  0  0  0
    4.0389   -5.5001   -2.6853 H   0  0  0  0  0  0  0  0  0  0  0  0
    6.1684   -5.6903   -3.9209 H   0  0  0  0  0  0  0  0  0  0  0  0
    6.5591   -1.4225   -3.9904 H   0  0  0  0  0  0  0  0  0  0  0  0
    1.6125    1.4308    2.0645 H   0  0  0  0  0  0  0  0  0  0  0  0
    4.4988    4.3311    3.9984 H   0  0  0  0  0  0  0  0  0  0  0  0
    5.7021    6.3243    4.6726 H   0  0  0  0  0  0  0  0  0  0  0  0
    7.2002    7.4946    3.0737 H   0  0  0  0  0  0  0  0  0  0  0  0
    7.4903    6.5962    0.7769 H   0  0  0  0  0  0  0  0  0  0  0  0
    6.2686    4.5814    0.0623 H   0  0  0  0  0  0  0  0  0  0  0  0
    4.7064    0.9211   -0.8652 H   0  0  0  0  0  0  0  0  0  0  0  0
  1  2  2  0  0  0  0
  2  3  1  0  0  0  0
  2 17  1  0  0  0  0
  3  4  1  0  0  0  0
  3 30  1  0  0  0  0
  4  5  2  0  0  0  0
  4  8  1  0  0  0  0
  5  6  1  0  0  0  0
  6  7  1  0  0  0  0
  7  8  2  0  0  0  0
  7 31  1  0  0  0  0
  8  9  1  0  0  0  0
  9 10  2  0  0  0  0
  9 15  1  0  0  0  0
 10 11  1  0  0  0  0
 10 32  1  0  0  0  0
 11 12  2  0  0  0  0
 11 33  1  0  0  0  0
 12 13  1  0  0  0  0
 12 14  1  0  0  0  0
 14 15  2  0  0  0  0
 14 34  1  0  0  0  0
 15 16  1  0  0  0  0
 17 18  2  0  0  0  0
 17 29  1  0  0  0  0
 18 19  1  0  0  0  0
 18 35  1  0  0  0  0
 19 20  2  0  0  0  0
 19 21  1  0  0  0  0
 21 22  1  0  0  0  0
 21 28  1  0  0  0  0
 22 23  2  0  0  0  0
 22 27  1  0  0  0  0
 23 24  1  0  0  0  0
 23 36  1  0  0  0  0
 24 25  2  0  0  0  0
 24 37  1  0  0  0  0
 25 26  1  0  0  0  0
 25 38  1  0  0  0  0
 26 27  2  0  0  0  0
 26 39  1  0  0  0  0
 27 40  1  0  0  0  0
 28 29  2  0  0  0  0
 29 41  1  0  0  0  0
M  END
$$$$
