
 OpenBabel01122422353D

 43 46  0  0  0  0  0  0  0  0999 V2000
    3.1418   -0.5113    0.8030 O   0  0  0  0  0  0  0  0  0  0  0  0
    2.3110   -0.0963    0.0075 C   0  0  0  0  0  0  0  0  0  0  0  0
    2.5875    0.5078   -1.1659 O   0  0  0  0  0  0  0  0  0  0  0  0
    3.9932    0.7562   -1.4094 C   0  0  0  0  0  0  0  0  0  0  0  0
    4.7648   -0.4060   -1.9721 C   0  0  0  0  0  0  0  0  0  0  0  0
    4.4350   -0.9660   -3.1456 N   0  0  0  0  0  0  0  0  0  0  0  0
    5.3420   -1.9657   -3.3286 N   0  0  0  0  0  0  0  0  0  0  0  0
    5.2498   -2.8307   -4.4483 C   0  0  0  0  0  0  0  0  0  0  0  0
    4.4992   -2.4342   -5.5679 C   0  0  0  0  0  0  0  0  0  0  0  0
    4.4019   -3.2781   -6.6775 C   0  0  0  0  0  0  0  0  0  0  0  0
    5.0262   -4.5205   -6.6552 C   0  0  0  0  0  0  0  0  0  0  0  0
    4.9138   -5.3352   -7.7120 F   0  0  0  0  0  0  0  0  0  0  0  0
    5.7589   -4.9329   -5.5511 C   0  0  0  0  0  0  0  0  0  0  0  0
    5.8779   -4.0812   -4.4560 C   0  0  0  0  0  0  0  0  0  0  0  0
    6.5599   -4.5339   -3.3947 F   0  0  0  0  0  0  0  0  0  0  0  0
    6.2880   -1.9670   -2.3297 C   0  0  0  0  0  0  0  0  0  0  0  0
    5.9373   -0.9822   -1.4397 C   0  0  0  0  0  0  0  0  0  0  0  0
    0.8622   -0.0520    0.3366 C   0  0  0  0  0  0  0  0  0  0  0  0
    0.5622    0.1288    1.7047 C   0  0  0  0  0  0  0  0  0  0  0  0
   -0.7575    0.1996    2.1382 C   0  0  0  0  0  0  0  0  0  0  0  0
   -1.7513    0.1108    1.1896 C   0  0  0  0  0  0  0  0  0  0  0  0
   -1.5028   -0.0676   -0.1233 N   0  0  0  0  0  0  0  0  0  0  0  0
   -0.2037   -0.1816   -0.5554 C   0  0  0  0  0  0  0  0  0  0  0  0
   -0.1401   -0.5568   -1.9835 C   0  0  0  0  0  0  0  0  0  0  0  0
   -1.0829   -0.0490   -2.8940 C   0  0  0  0  0  0  0  0  0  0  0  0
   -1.0887   -0.5075   -4.2036 C   0  0  0  0  0  0  0  0  0  0  0  0
   -0.2180   -1.4180   -4.6810 N   0  0  0  0  0  0  0  0  0  0  0  0
    0.6879   -1.8957   -3.8049 C   0  0  0  0  0  0  0  0  0  0  0  0
    0.7584   -1.5125   -2.4730 C   0  0  0  0  0  0  0  0  0  0  0  0
    4.4695    1.1242   -0.4904 H   0  0  0  0  0  0  0  0  0  0  0  0
    4.0453    1.5854   -2.1251 H   0  0  0  0  0  0  0  0  0  0  0  0
    4.0098   -1.4613   -5.5988 H   0  0  0  0  0  0  0  0  0  0  0  0
    3.8413   -2.9733   -7.5565 H   0  0  0  0  0  0  0  0  0  0  0  0
    6.2221   -5.9133   -5.5369 H   0  0  0  0  0  0  0  0  0  0  0  0
    7.1381   -2.6343   -2.3464 H   0  0  0  0  0  0  0  0  0  0  0  0
    6.4713   -0.7055   -0.5410 H   0  0  0  0  0  0  0  0  0  0  0  0
    1.3619    0.2057    2.4354 H   0  0  0  0  0  0  0  0  0  0  0  0
   -1.0010    0.3180    3.1887 H   0  0  0  0  0  0  0  0  0  0  0  0
   -2.8023    0.1639    1.4624 H   0  0  0  0  0  0  0  0  0  0  0  0
   -1.8319    0.6698   -2.5798 H   0  0  0  0  0  0  0  0  0  0  0  0
   -1.8280   -0.1516   -4.9156 H   0  0  0  0  0  0  0  0  0  0  0  0
    1.3736   -2.6384   -4.2015 H   0  0  0  0  0  0  0  0  0  0  0  0
    1.4982   -1.9846   -1.8362 H   0  0  0  0  0  0  0  0  0  0  0  0
  1  2  2  0  0  0  0
  2  3  1  0  0  0  0
  2 18  1  0  0  0  0
  3  4  1  0  0  0  0
  4  5  1  0  0  0  0
  4 30  1  0  0  0  0
  4 31  1  0  0  0  0
  5  6  2  0  0  0  0
  5 17  1  0  0  0  0
  6  7  1  0  0  0  0
  7  8  1  0  0  0  0
  7 16  1  0  0  0  0
  8  9  2  0  0  0  0
  8 14  1  0  0  0  0
  9 10  1  0  0  0  0
  9 32  1  0  0  0  0
 10 11  2  0  0  0  0
 10 33  1  0  0  0  0
 11 12  1  0  0  0  0
 11 13  1  0  0  0  0
 13 14  2  0  0  0  0
 13 34  1  0  0  0  0
 14 15  1  0  0  0  0
 16 17  2  0  0  0  0
 16 35  1  0  0  0  0
 17 36  1  0  0  0  0
 18 19  2  0  0  0  0
 18 23  1  0  0  0  0
 19 20  1  0  0  0  0
 19 37  1  0  0  0  0
 20 21  2  0  0  0  0
 20 38  1  0  0  0  0
 21 22  1  0  0  0  0
 21 39  1  0  0  0  0
 22 23  2  0  0  0  0
 23 24  1  0  0  0  0
 24 25  2  0  0  0  0
 24 29  1  0  0  0  0
 25 26  1  0  0  0  0
 25 40  1  0  0  0  0
 26 27  2  0  0  0  0
 26 41  1  0  0  0  0
 27 28  1  0  0  0  0
 28 29  2  0  0  0  0
 28 42  1  0  0  0  0
 29 43  1  0  0  0  0
M  END
$$$$
