
 OpenBabel01122422353D

 43 46  0  0  0  0  0  0  0  0999 V2000
    1.1318    0.0146   -0.0288 O   0  0  0  0  0  0  0  0  0  0  0  0
    2.3654   -0.0076   -0.0263 C   0  0  0  0  0  0  0  0  0  0  0  0
    3.0960   -0.9023    0.9663 C   0  0  0  0  0  0  0  0  0  0  0  0
    4.4001   -1.4433    0.4826 C   0  0  0  0  0  0  0  0  0  0  0  0
    5.3638   -0.6129    0.0602 N   0  0  0  0  0  0  0  0  0  0  0  0
    6.3867   -1.4179   -0.3303 N   0  0  0  0  0  0  0  0  0  0  0  0
    7.5501   -0.8610   -0.9300 C   0  0  0  0  0  0  0  0  0  0  0  0
    7.6769    0.5374   -1.0220 C   0  0  0  0  0  0  0  0  0  0  0  0
    8.7917    1.1027   -1.6441 C   0  0  0  0  0  0  0  0  0  0  0  0
    9.7730    0.2744   -2.1714 C   0  0  0  0  0  0  0  0  0  0  0  0
   10.8375    0.8152   -2.7790 F   0  0  0  0  0  0  0  0  0  0  0  0
    9.6665   -1.1086   -2.0828 C   0  0  0  0  0  0  0  0  0  0  0  0
    8.5561   -1.6834   -1.4577 C   0  0  0  0  0  0  0  0  0  0  0  0
    6.0849   -2.7422   -0.1059 C   0  0  0  0  0  0  0  0  0  0  0  0
    4.8115   -2.7885    0.4097 C   0  0  0  0  0  0  0  0  0  0  0  0
    3.1761    0.7715   -0.8295 N   0  0  0  0  0  0  0  0  0  0  0  0
    2.7285    1.7011   -1.7465 C   0  0  0  0  0  0  0  0  0  0  0  0
    1.4832    2.2668   -1.8347 C   0  0  0  0  0  0  0  0  0  0  0  0
    1.4768    3.0866   -2.9397 N   0  0  0  0  0  0  0  0  0  0  0  0
    0.3892    3.8397   -3.4242 C   0  0  0  0  0  0  0  0  0  0  0  0
   -0.5822    4.3274   -2.5483 C   0  0  0  0  0  0  0  0  0  0  0  0
   -0.4633    4.1833   -1.2204 F   0  0  0  0  0  0  0  0  0  0  0  0
   -1.6808    5.0447   -3.0212 C   0  0  0  0  0  0  0  0  0  0  0  0
   -1.8315    5.2637   -4.3884 C   0  0  0  0  0  0  0  0  0  0  0  0
   -0.8671    4.7800   -5.2718 C   0  0  0  0  0  0  0  0  0  0  0  0
    0.2448    4.0860   -4.7894 C   0  0  0  0  0  0  0  0  0  0  0  0
    1.1046    3.5937   -5.6923 F   0  0  0  0  0  0  0  0  0  0  0  0
    2.6875    3.0928   -3.5557 N   0  0  0  0  0  0  0  0  0  0  0  0
    3.4468    2.2927   -2.8023 C   0  0  0  0  0  0  0  0  0  0  0  0
    2.4278   -1.7402    1.2015 H   0  0  0  0  0  0  0  0  0  0  0  0
    3.2455   -0.3277    1.8871 H   0  0  0  0  0  0  0  0  0  0  0  0
    6.9184    1.2022   -0.6114 H   0  0  0  0  0  0  0  0  0  0  0  0
    8.8964    2.1800   -1.7228 H   0  0  0  0  0  0  0  0  0  0  0  0
   10.4471   -1.7328   -2.5088 H   0  0  0  0  0  0  0  0  0  0  0  0
    8.5001   -2.7666   -1.4174 H   0  0  0  0  0  0  0  0  0  0  0  0
    6.7788   -3.5377   -0.3280 H   0  0  0  0  0  0  0  0  0  0  0  0
    4.2572   -3.6736    0.6916 H   0  0  0  0  0  0  0  0  0  0  0  0
    4.1733    0.5506   -0.8310 H   0  0  0  0  0  0  0  0  0  0  0  0
    0.5960    2.1224   -1.2358 H   0  0  0  0  0  0  0  0  0  0  0  0
   -2.4098    5.4303   -2.3139 H   0  0  0  0  0  0  0  0  0  0  0  0
   -2.6949    5.8068   -4.7634 H   0  0  0  0  0  0  0  0  0  0  0  0
   -0.9782    4.9239   -6.3430 H   0  0  0  0  0  0  0  0  0  0  0  0
    4.4812    2.1436   -3.0839 H   0  0  0  0  0  0  0  0  0  0  0  0
  1  2  2  0  0  0  0
  2  3  1  0  0  0  0
  2 16  1  0  0  0  0
  3  4  1  0  0  0  0
  3 30  1  0  0  0  0
  3 31  1  0  0  0  0
  4  5  2  0  0  0  0
  4 15  1  0  0  0  0
  5  6  1  0  0  0  0
  6  7  1  0  0  0  0
  6 14  1  0  0  0  0
  7  8  2  0  0  0  0
  7 13  1  0  0  0  0
  8  9  1  0  0  0  0
  8 32  1  0  0  0  0
  9 10  2  0  0  0  0
  9 33  1  0  0  0  0
 10 11  1  0  0  0  0
 10 12  1  0  0  0  0
 12 13  2  0  0  0  0
 12 34  1  0  0  0  0
 13 35  1  0  0  0  0
 14 15  2  0  0  0  0
 14 36  1  0  0  0  0
 15 37  1  0  0  0  0
 16 17  1  0  0  0  0
 16 38  1  0  0  0  0
 17 18  2  0  0  0  0
 17 29  1  0  0  0  0
 18 19  1  0  0  0  0
 18 39  1  0  0  0  0
 19 20  1  0  0  0  0
 19 28  1  0  0  0  0
 20 21  2  0  0  0  0
 20 26  1  0  0  0  0
 21 22  1  0  0  0  0
 21 23  1  0  0  0  0
 23 24  2  0  0  0  0
 23 40  1  0  0  0  0
 24 25  1  0  0  0  0
 24 41  1  0  0  0  0
 25 26  2  0  0  0  0
 25 42  1  0  0  0  0
 26 27  1  0  0  0  0
 28 29  2  0  0  0  0
 29 43  1  0  0  0  0
M  END
$$$$
