
 OpenBabel01122422353D

 42 45  0  0  0  0  0  0  0  0999 V2000
    3.2337   -0.0128    1.2483 N   0  0  0  0  0  0  0  0  0  0  0  0
    2.5248   -0.3618    0.1293 C   0  0  0  0  0  0  0  0  0  0  0  0
    1.3058   -0.2670    0.1262 O   0  0  0  0  0  0  0  0  0  0  0  0
    3.3054   -0.8503   -1.0441 C   0  0  0  0  0  0  0  0  0  0  0  0
    4.4612   -1.6071   -0.7954 C   0  0  0  0  0  0  0  0  0  0  0  0
    5.1778   -2.0918   -1.8714 C   0  0  0  0  0  0  0  0  0  0  0  0
    6.3401   -2.8336   -1.6260 N   0  0  0  0  0  0  0  0  0  0  0  0
    7.1451   -3.3738   -2.6165 C   0  0  0  0  0  0  0  0  0  0  0  0
    6.8975   -3.3682   -3.8147 O   0  0  0  0  0  0  0  0  0  0  0  0
    8.3746   -3.9476   -2.0941 C   0  0  0  0  0  0  0  0  0  0  0  0
    9.6406   -4.1318   -2.6485 C   0  0  0  0  0  0  0  0  0  0  0  0
   10.0838   -3.6594   -3.9590 C   0  0  0  0  0  0  0  0  0  0  0  0
    9.6294   -2.4411   -4.4958 C   0  0  0  0  0  0  0  0  0  0  0  0
   10.0457   -2.0051   -5.7578 C   0  0  0  0  0  0  0  0  0  0  0  0
   10.9541   -2.7669   -6.4768 C   0  0  0  0  0  0  0  0  0  0  0  0
   11.3604   -2.3442   -7.6816 F   0  0  0  0  0  0  0  0  0  0  0  0
   11.4433   -3.9524   -5.9451 C   0  0  0  0  0  0  0  0  0  0  0  0
   12.3397   -4.6759   -6.6307 F   0  0  0  0  0  0  0  0  0  0  0  0
   11.0147   -4.4048   -4.6967 C   0  0  0  0  0  0  0  0  0  0  0  0
   10.3833   -4.8591   -1.6711 C   0  0  0  0  0  0  0  0  0  0  0  0
    9.5577   -5.0267   -0.5874 C   0  0  0  0  0  0  0  0  0  0  0  0
    8.3526   -4.4525   -0.8147 O   0  0  0  0  0  0  0  0  0  0  0  0
    4.7995   -1.8496   -3.1311 N   0  0  0  0  0  0  0  0  0  0  0  0
    3.6902   -1.1491   -3.3863 C   0  0  0  0  0  0  0  0  0  0  0  0
    3.3529   -0.9671   -4.7196 C   0  0  0  0  0  0  0  0  0  0  0  0
    2.2224   -0.2484   -5.1022 C   0  0  0  0  0  0  0  0  0  0  0  0
    1.4102    0.3088   -4.1278 C   0  0  0  0  0  0  0  0  0  0  0  0
    1.7342    0.1382   -2.7796 C   0  0  0  0  0  0  0  0  0  0  0  0
    2.8782   -0.6040   -2.3771 C   0  0  0  0  0  0  0  0  0  0  0  0
    2.6970    0.3863    2.0095 H   0  0  0  0  0  0  0  0  0  0  0  0
    4.2335    0.1234    1.2586 H   0  0  0  0  0  0  0  0  0  0  0  0
    4.7712   -1.8348    0.2172 H   0  0  0  0  0  0  0  0  0  0  0  0
    6.6423   -2.9739   -0.6730 H   0  0  0  0  0  0  0  0  0  0  0  0
    8.9278   -1.8119   -3.9525 H   0  0  0  0  0  0  0  0  0  0  0  0
    9.6586   -1.0816   -6.1770 H   0  0  0  0  0  0  0  0  0  0  0  0
   11.4125   -5.3449   -4.3276 H   0  0  0  0  0  0  0  0  0  0  0  0
   11.4053   -5.2056   -1.7431 H   0  0  0  0  0  0  0  0  0  0  0  0
    9.6759   -5.5057    0.3754 H   0  0  0  0  0  0  0  0  0  0  0  0
    3.9929   -1.4052   -5.4844 H   0  0  0  0  0  0  0  0  0  0  0  0
    1.9845   -0.1305   -6.1558 H   0  0  0  0  0  0  0  0  0  0  0  0
    0.5243    0.8712   -4.4101 H   0  0  0  0  0  0  0  0  0  0  0  0
    1.0730    0.5895   -2.0419 H   0  0  0  0  0  0  0  0  0  0  0  0
  1  2  1  0  0  0  0
  1 30  1  0  0  0  0
  1 31  1  0  0  0  0
  2  3  2  0  0  0  0
  2  4  1  0  0  0  0
  4  5  2  0  0  0  0
  4 29  1  0  0  0  0
  5  6  1  0  0  0  0
  5 32  1  0  0  0  0
  6  7  1  0  0  0  0
  6 23  2  0  0  0  0
  7  8  1  0  0  0  0
  7 33  1  0  0  0  0
  8  9  2  0  0  0  0
  8 10  1  0  0  0  0
 10 11  2  0  0  0  0
 10 22  1  0  0  0  0
 11 12  1  0  0  0  0
 11 20  1  0  0  0  0
 12 13  2  0  0  0  0
 12 19  1  0  0  0  0
 13 14  1  0  0  0  0
 13 34  1  0  0  0  0
 14 15  2  0  0  0  0
 14 35  1  0  0  0  0
 15 16  1  0  0  0  0
 15 17  1  0  0  0  0
 17 18  1  0  0  0  0
 17 19  2  0  0  0  0
 19 36  1  0  0  0  0
 20 21  2  0  0  0  0
 20 37  1  0  0  0  0
 21 22  1  0  0  0  0
 21 38  1  0  0  0  0
 23 24  1  0  0  0  0
 24 25  2  0  0  0  0
 24 29  1  0  0  0  0
 25 26  1  0  0  0  0
 25 39  1  0  0  0  0
 26 27  2  0  0  0  0
 26 40  1  0  0  0  0
 27 28  1  0  0  0  0
 27 41  1  0  0  0  0
 28 29  2  0  0  0  0
 28 42  1  0  0  0  0
M  END
$$$$
