
 OpenBabel01122422353D

 46 49  0  0  0  0  0  0  0  0999 V2000
    1.0196    0.0630    0.1938 O   0  0  0  0  0  0  0  0  0  0  0  0
    2.2444    0.0249    0.1024 C   0  0  0  0  0  0  0  0  0  0  0  0
    3.0099   -0.8466    0.8448 N   0  0  0  0  0  0  0  0  0  0  0  0
    2.3650   -1.8191    1.6835 C   0  0  0  0  0  0  0  0  0  0  0  0
    3.2868   -2.8339    2.3254 C   0  0  0  0  0  0  0  0  0  0  0  0
    4.5997   -2.7557    1.9364 N   0  0  0  0  0  0  0  0  0  0  0  0
    5.4812   -3.5920    2.5152 C   0  0  0  0  0  0  0  0  0  0  0  0
    5.1289   -4.5227    3.4682 C   0  0  0  0  0  0  0  0  0  0  0  0
    3.7868   -4.6163    3.8348 C   0  0  0  0  0  0  0  0  0  0  0  0
    2.8070   -3.7723    3.2734 C   0  0  0  0  0  0  0  0  0  0  0  0
    1.3889   -3.8664    3.7379 C   0  0  0  0  0  0  0  0  0  0  0  0
    1.0822   -4.1058    5.0923 C   0  0  0  0  0  0  0  0  0  0  0  0
   -0.2381   -4.1115    5.5627 C   0  0  0  0  0  0  0  0  0  0  0  0
   -1.2905   -3.8417    4.6964 C   0  0  0  0  0  0  0  0  0  0  0  0
   -1.0273   -3.6426    3.3494 C   0  0  0  0  0  0  0  0  0  0  0  0
    0.2880   -3.7074    2.8762 C   0  0  0  0  0  0  0  0  0  0  0  0
    3.0200    0.8945   -0.7862 C   0  0  0  0  0  0  0  0  0  0  0  0
    4.3548    0.7619   -0.9190 N   0  0  0  0  0  0  0  0  0  0  0  0
    4.7381    1.7819   -1.7240 N   0  0  0  0  0  0  0  0  0  0  0  0
    6.1139    2.0002   -1.9946 C   0  0  0  0  0  0  0  0  0  0  0  0
    6.5462    3.1156   -2.7207 C   0  0  0  0  0  0  0  0  0  0  0  0
    7.9087    3.3378   -2.9317 C   0  0  0  0  0  0  0  0  0  0  0  0
    8.8455    2.4335   -2.4279 C   0  0  0  0  0  0  0  0  0  0  0  0
    8.4158    1.3223   -1.7146 C   0  0  0  0  0  0  0  0  0  0  0  0
    9.3192    0.4565   -1.2370 F   0  0  0  0  0  0  0  0  0  0  0  0
    7.0611    1.0898   -1.4903 C   0  0  0  0  0  0  0  0  0  0  0  0
    3.6567    2.5032   -2.1831 C   0  0  0  0  0  0  0  0  0  0  0  0
    2.5543    1.9538   -1.5919 C   0  0  0  0  0  0  0  0  0  0  0  0
    1.3012    2.3997   -1.7584 O   0  0  0  0  0  0  0  0  0  0  0  0
    4.0074   -0.9195    0.6633 H   0  0  0  0  0  0  0  0  0  0  0  0
    1.6673   -2.3333    1.0216 H   0  0  0  0  0  0  0  0  0  0  0  0
    1.8190   -1.2663    2.4551 H   0  0  0  0  0  0  0  0  0  0  0  0
    6.5110   -3.4865    2.1853 H   0  0  0  0  0  0  0  0  0  0  0  0
    5.8780   -5.1635    3.9201 H   0  0  0  0  0  0  0  0  0  0  0  0
    3.5144   -5.3630    4.5776 H   0  0  0  0  0  0  0  0  0  0  0  0
    1.8740   -4.2786    5.8179 H   0  0  0  0  0  0  0  0  0  0  0  0
   -0.4392   -4.3076    6.6126 H   0  0  0  0  0  0  0  0  0  0  0  0
   -2.3116   -3.7980    5.0648 H   0  0  0  0  0  0  0  0  0  0  0  0
   -1.8398   -3.4364    2.6564 H   0  0  0  0  0  0  0  0  0  0  0  0
    0.4159   -3.6268    1.8022 H   0  0  0  0  0  0  0  0  0  0  0  0
    5.8494    3.8497   -3.1241 H   0  0  0  0  0  0  0  0  0  0  0  0
    8.2444    4.2107   -3.4816 H   0  0  0  0  0  0  0  0  0  0  0  0
    9.9104    2.5928   -2.5783 H   0  0  0  0  0  0  0  0  0  0  0  0
    6.7715    0.2110   -0.9286 H   0  0  0  0  0  0  0  0  0  0  0  0
    3.7639    3.3381   -2.8613 H   0  0  0  0  0  0  0  0  0  0  0  0
    1.2727    3.1536   -2.3688 H   0  0  0  0  0  0  0  0  0  0  0  0
  1  2  2  0  0  0  0
  2  3  1  0  0  0  0
  2 17  1  0  0  0  0
  3  4  1  0  0  0  0
  3 30  1  0  0  0  0
  4  5  1  0  0  0  0
  4 31  1  0  0  0  0
  4 32  1  0  0  0  0
  5  6  2  0  0  0  0
  5 10  1  0  0  0  0
  6  7  1  0  0  0  0
  7  8  2  0  0  0  0
  7 33  1  0  0  0  0
  8  9  1  0  0  0  0
  8 34  1  0  0  0  0
  9 10  2  0  0  0  0
  9 35  1  0  0  0  0
 10 11  1  0  0  0  0
 11 12  2  0  0  0  0
 11 16  1  0  0  0  0
 12 13  1  0  0  0  0
 12 36  1  0  0  0  0
 13 14  2  0  0  0  0
 13 37  1  0  0  0  0
 14 15  1  0  0  0  0
 14 38  1  0  0  0  0
 15 16  2  0  0  0  0
 15 39  1  0  0  0  0
 16 40  1  0  0  0  0
 17 18  2  0  0  0  0
 17 28  1  0  0  0  0
 18 19  1  0  0  0  0
 19 20  1  0  0  0  0
 19 27  1  0  0  0  0
 20 21  2  0  0  0  0
 20 26  1  0  0  0  0
 21 22  1  0  0  0  0
 21 41  1  0  0  0  0
 22 23  2  0  0  0  0
 22 42  1  0  0  0  0
 23 24  1  0  0  0  0
 23 43  1  0  0  0  0
 24 25  1  0  0  0  0
 24 26  2  0  0  0  0
 26 44  1  0  0  0  0
 27 28  2  0  0  0  0
 27 45  1  0  0  0  0
 28 29  1  0  0  0  0
 29 46  1  0  0  0  0
M  END
$$$$
