
 OpenBabel01122422353D

 57 60  0  0  1  0  0  0  0  0999 V2000
    2.7615    0.5266   -2.5022 C   0  0  0  0  0  0  0  0  0  0  0  0
    4.0061    0.9252   -1.9207 O   0  0  0  0  0  0  0  0  0  0  0  0
    5.1052    0.4728   -2.5828 C   0  0  0  0  0  0  0  0  0  0  0  0
    5.0903   -0.1957   -3.6057 O   0  0  0  0  0  0  0  0  0  0  0  0
    6.3275    0.8706   -1.8523 C   0  0  0  0  0  0  0  0  0  0  0  0
    6.2802    0.7683   -0.4445 C   0  0  0  0  0  0  0  0  0  0  0  0
    7.4254    0.9326    0.3483 C   0  0  0  0  0  0  0  0  0  0  0  0
    7.3888    0.6988    1.8465 C   0  0  2  0  0  0  0  0  0  0  0  0
    7.0065   -0.7432    2.1778 C   0  0  0  0  0  0  0  0  0  0  0  0
    6.4704    1.6216    2.4956 N   0  0  0  0  0  0  0  0  0  0  0  0
    6.9120    2.5170    3.4429 C   0  0  0  0  0  0  0  0  0  0  0  0
    8.0915    2.6043    3.7754 O   0  0  0  0  0  0  0  0  0  0  0  0
    5.9048    3.4058    4.0680 C   0  0  0  0  0  0  0  0  0  0  0  0
    4.5459    3.0909    4.1708 C   0  0  0  0  0  0  0  0  0  0  0  0
    3.6586    3.9870    4.7960 C   0  0  0  0  0  0  0  0  0  0  0  0
    4.1072    5.1961    5.3634 C   0  0  0  0  0  0  0  0  0  0  0  0
    3.1810    6.1719    6.0150 C   0  0  0  0  0  0  0  0  0  0  0  0
    2.0984    5.6914    6.7877 C   0  0  0  0  0  0  0  0  0  0  0  0
    1.2719    6.5483    7.5226 C   0  0  0  0  0  0  0  0  0  0  0  0
    1.5230    7.9129    7.5365 C   0  0  0  0  0  0  0  0  0  0  0  0
    2.5576    8.4276    6.7600 C   0  0  0  0  0  0  0  0  0  0  0  0
    3.3576    7.5842    5.9613 C   0  0  0  0  0  0  0  0  0  0  0  0
    4.3293    8.2263    5.0792 C   0  0  0  0  0  0  0  0  0  0  0  0
    5.1129    9.2628    5.4328 N   0  0  0  0  0  0  0  0  0  0  0  0
    5.8562    9.3846    4.3219 N   0  0  0  0  0  0  0  0  0  0  0  0
    5.5690    8.5430    3.3250 N   0  0  0  0  0  0  0  0  0  0  0  0
    4.5709    7.8062    3.7899 N   0  0  0  0  0  0  0  0  0  0  0  0
    5.4924    5.4346    5.3188 C   0  0  0  0  0  0  0  0  0  0  0  0
    6.3692    4.5862    4.6429 C   0  0  0  0  0  0  0  0  0  0  0  0
    8.6287    1.2507   -0.2865 C   0  0  0  0  0  0  0  0  0  0  0  0
    8.6840    1.3710   -1.6788 C   0  0  0  0  0  0  0  0  0  0  0  0
    7.5427    1.1876   -2.4755 C   0  0  0  0  0  0  0  0  0  0  0  0
    7.8209    1.2773   -3.8124 O   0  0  0  0  0  0  0  0  0  0  0  0
    6.8552    1.9009   -4.6503 C   0  0  0  0  0  0  0  0  0  0  0  0
    1.9918    0.5729   -1.7239 H   0  0  0  0  0  0  0  0  0  0  0  0
    2.7919   -0.5020   -2.8774 H   0  0  0  0  0  0  0  0  0  0  0  0
    2.4968    1.2194   -3.3008 H   0  0  0  0  0  0  0  0  0  0  0  0
    5.3440    0.4957    0.0377 H   0  0  0  0  0  0  0  0  0  0  0  0
    8.3956    0.8614    2.2490 H   0  0  0  0  0  0  0  0  0  0  0  0
    6.0030   -0.9961    1.8172 H   0  0  0  0  0  0  0  0  0  0  0  0
    7.0118   -0.9055    3.2610 H   0  0  0  0  0  0  0  0  0  0  0  0
    7.7128   -1.4468    1.7236 H   0  0  0  0  0  0  0  0  0  0  0  0
    5.5252    1.6881    2.1474 H   0  0  0  0  0  0  0  0  0  0  0  0
    4.1572    2.1495    3.7968 H   0  0  0  0  0  0  0  0  0  0  0  0
    2.6051    3.7173    4.8343 H   0  0  0  0  0  0  0  0  0  0  0  0
    1.8954    4.6241    6.8518 H   0  0  0  0  0  0  0  0  0  0  0  0
    0.4470    6.1421    8.1032 H   0  0  0  0  0  0  0  0  0  0  0  0
    0.9104    8.5783    8.1392 H   0  0  0  0  0  0  0  0  0  0  0  0
    2.7360    9.5021    6.7667 H   0  0  0  0  0  0  0  0  0  0  0  0
    6.6014   10.0703    4.2392 H   0  0  0  0  0  0  0  0  0  0  0  0
    5.9252    6.3127    5.7930 H   0  0  0  0  0  0  0  0  0  0  0  0
    7.4213    4.8573    4.5737 H   0  0  0  0  0  0  0  0  0  0  0  0
    9.5425    1.3817    0.2916 H   0  0  0  0  0  0  0  0  0  0  0  0
    9.6388    1.5943   -2.1521 H   0  0  0  0  0  0  0  0  0  0  0  0
    7.3980    2.4446   -5.4307 H   0  0  0  0  0  0  0  0  0  0  0  0
    6.2226    2.6203   -4.1208 H   0  0  0  0  0  0  0  0  0  0  0  0
    6.2570    1.1432   -5.1599 H   0  0  0  0  0  0  0  0  0  0  0  0
  1  2  1  0  0  0  0
  1 35  1  0  0  0  0
  1 36  1  0  0  0  0
  1 37  1  0  0  0  0
  2  3  1  0  0  0  0
  3  4  2  0  0  0  0
  3  5  1  0  0  0  0
  5  6  2  0  0  0  0
  5 32  1  0  0  0  0
  6  7  1  0  0  0  0
  6 38  1  0  0  0  0
  7 30  2  0  0  0  0
  8 10  1  0  0  0  0
  8  9  1  0  0  0  0
  8  7  1  0  0  0  0
  8 39  1  1  0  0  0
  9 40  1  0  0  0  0
  9 41  1  0  0  0  0
  9 42  1  0  0  0  0
 10 11  1  0  0  0  0
 10 43  1  0  0  0  0
 11 12  2  0  0  0  0
 11 13  1  0  0  0  0
 13 14  2  0  0  0  0
 13 29  1  0  0  0  0
 14 15  1  0  0  0  0
 14 44  1  0  0  0  0
 15 16  2  0  0  0  0
 15 45  1  0  0  0  0
 16 17  1  0  0  0  0
 16 28  1  0  0  0  0
 17 18  2  0  0  0  0
 17 22  1  0  0  0  0
 18 19  1  0  0  0  0
 18 46  1  0  0  0  0
 19 20  2  0  0  0  0
 19 47  1  0  0  0  0
 20 21  1  0  0  0  0
 20 48  1  0  0  0  0
 21 22  2  0  0  0  0
 21 49  1  0  0  0  0
 22 23  1  0  0  0  0
 23 24  2  0  0  0  0
 23 27  1  0  0  0  0
 24 25  1  0  0  0  0
 25 26  1  0  0  0  0
 25 50  1  0  0  0  0
 26 27  2  0  0  0  0
 28 29  2  0  0  0  0
 28 51  1  0  0  0  0
 29 52  1  0  0  0  0
 30 31  1  0  0  0  0
 30 53  1  0  0  0  0
 31 32  2  0  0  0  0
 31 54  1  0  0  0  0
 32 33  1  0  0  0  0
 33 34  1  0  0  0  0
 34 55  1  0  0  0  0
 34 56  1  0  0  0  0
 34 57  1  0  0  0  0
M  END
$$$$
