
 OpenBabel01122422353D

 47 50  0  0  0  0  0  0  0  0999 V2000
    0.9459   -0.4061    0.1682 O   0  0  0  0  0  0  0  0  0  0  0  0
    2.1256   -0.1271   -0.0223 C   0  0  0  0  0  0  0  0  0  0  0  0
    2.8040    0.9471    0.5108 N   0  0  0  0  0  0  0  0  0  0  0  0
    2.2660    1.8860    1.4166 C   0  0  0  0  0  0  0  0  0  0  0  0
    1.0718    1.6937    2.1157 C   0  0  0  0  0  0  0  0  0  0  0  0
    0.5964    2.6736    2.9877 C   0  0  0  0  0  0  0  0  0  0  0  0
    1.3187    3.8490    3.1795 C   0  0  0  0  0  0  0  0  0  0  0  0
    0.7822    4.7318    4.0747 O   0  0  0  0  0  0  0  0  0  0  0  0
    1.7282    5.6121    4.6887 C   0  0  0  0  0  0  0  0  0  0  0  0
    1.2094    6.1365    5.9995 C   0  0  0  0  0  0  0  0  0  0  0  0
    0.3365    5.3890    6.7857 C   0  0  0  0  0  0  0  0  0  0  0  0
   -0.0915    5.8014    8.0039 N   0  0  0  0  0  0  0  0  0  0  0  0
    0.3954    6.9931    8.4120 C   0  0  0  0  0  0  0  0  0  0  0  0
    1.2750    7.7373    7.6460 C   0  0  0  0  0  0  0  0  0  0  0  0
    1.7049    7.3274    6.4322 N   0  0  0  0  0  0  0  0  0  0  0  0
    2.4995    4.0573    2.4696 C   0  0  0  0  0  0  0  0  0  0  0  0
    2.9818    3.0706    1.6080 C   0  0  0  0  0  0  0  0  0  0  0  0
    2.9201   -0.9505   -0.9607 C   0  0  0  0  0  0  0  0  0  0  0  0
    2.2704   -1.5552   -1.9571 C   0  0  0  0  0  0  0  0  0  0  0  0
    2.9662   -2.4271   -2.9177 C   0  0  0  0  0  0  0  0  0  0  0  0
    2.2665   -2.9447   -3.7853 O   0  0  0  0  0  0  0  0  0  0  0  0
    4.3408   -2.5938   -2.7112 N   0  0  0  0  0  0  0  0  0  0  0  0
    5.1608   -3.4164   -3.5528 C   0  0  0  0  0  0  0  0  0  0  0  0
    4.7837   -3.7492   -4.8622 C   0  0  0  0  0  0  0  0  0  0  0  0
    5.5896   -4.5621   -5.6652 C   0  0  0  0  0  0  0  0  0  0  0  0
    6.7863   -5.0671   -5.1694 C   0  0  0  0  0  0  0  0  0  0  0  0
    7.1846   -4.7475   -3.8752 C   0  0  0  0  0  0  0  0  0  0  0  0
    6.3858   -3.9193   -3.0796 C   0  0  0  0  0  0  0  0  0  0  0  0
    5.0270   -1.9943   -1.6625 N   0  0  0  0  0  0  0  0  0  0  0  0
    4.3529   -1.2299   -0.8686 C   0  0  0  0  0  0  0  0  0  0  0  0
    3.7146    1.1796    0.1360 H   0  0  0  0  0  0  0  0  0  0  0  0
    0.4878    0.7840    2.0213 H   0  0  0  0  0  0  0  0  0  0  0  0
   -0.3352    2.5088    3.5264 H   0  0  0  0  0  0  0  0  0  0  0  0
    1.9161    6.4555    4.0132 H   0  0  0  0  0  0  0  0  0  0  0  0
    2.6707    5.0933    4.9075 H   0  0  0  0  0  0  0  0  0  0  0  0
   -0.0406    4.4250    6.4634 H   0  0  0  0  0  0  0  0  0  0  0  0
    0.0586    7.3360    9.3826 H   0  0  0  0  0  0  0  0  0  0  0  0
    1.6641    8.6877    7.9917 H   0  0  0  0  0  0  0  0  0  0  0  0
    3.0617    4.9816    2.5575 H   0  0  0  0  0  0  0  0  0  0  0  0
    3.9095    3.2597    1.0756 H   0  0  0  0  0  0  0  0  0  0  0  0
    1.2017   -1.4495   -2.1063 H   0  0  0  0  0  0  0  0  0  0  0  0
    3.8717   -3.3624   -5.3069 H   0  0  0  0  0  0  0  0  0  0  0  0
    5.2745   -4.7952   -6.6788 H   0  0  0  0  0  0  0  0  0  0  0  0
    7.4054   -5.7070   -5.7916 H   0  0  0  0  0  0  0  0  0  0  0  0
    8.1137   -5.1473   -3.4780 H   0  0  0  0  0  0  0  0  0  0  0  0
    6.7167   -3.7030   -2.0668 H   0  0  0  0  0  0  0  0  0  0  0  0
    4.8922   -0.7501   -0.0357 H   0  0  0  0  0  0  0  0  0  0  0  0
  1  2  2  0  0  0  0
  2  3  1  0  0  0  0
  2 18  1  0  0  0  0
  3  4  1  0  0  0  0
  3 31  1  0  0  0  0
  4  5  2  0  0  0  0
  4 17  1  0  0  0  0
  5  6  1  0  0  0  0
  5 32  1  0  0  0  0
  6  7  2  0  0  0  0
  6 33  1  0  0  0  0
  7  8  1  0  0  0  0
  7 16  1  0  0  0  0
  8  9  1  0  0  0  0
  9 10  1  0  0  0  0
  9 34  1  0  0  0  0
  9 35  1  0  0  0  0
 10 11  2  0  0  0  0
 10 15  1  0  0  0  0
 11 12  1  0  0  0  0
 11 36  1  0  0  0  0
 12 13  2  0  0  0  0
 13 14  1  0  0  0  0
 13 37  1  0  0  0  0
 14 15  2  0  0  0  0
 14 38  1  0  0  0  0
 16 17  2  0  0  0  0
 16 39  1  0  0  0  0
 17 40  1  0  0  0  0
 18 19  2  0  0  0  0
 18 30  1  0  0  0  0
 19 20  1  0  0  0  0
 19 41  1  0  0  0  0
 20 21  2  0  0  0  0
 20 22  1  0  0  0  0
 22 23  1  0  0  0  0
 22 29  1  0  0  0  0
 23 24  2  0  0  0  0
 23 28  1  0  0  0  0
 24 25  1  0  0  0  0
 24 42  1  0  0  0  0
 25 26  2  0  0  0  0
 25 43  1  0  0  0  0
 26 27  1  0  0  0  0
 26 44  1  0  0  0  0
 27 28  2  0  0  0  0
 27 45  1  0  0  0  0
 28 46  1  0  0  0  0
 29 30  2  0  0  0  0
 30 47  1  0  0  0  0
M  END
$$$$
