
 OpenBabel01122422353D

 45 48  0  0  0  0  0  0  0  0999 V2000
   -2.9392    2.3446   -0.0376 C   0  0  0  0  0  0  0  0  0  0  0  0
   -1.5293    2.0488   -0.2087 N   0  0  0  0  0  0  0  0  0  0  0  0
   -0.6343    3.0779   -0.4148 C   0  0  0  0  0  0  0  0  0  0  0  0
    0.6815    2.8714   -0.5072 C   0  0  0  0  0  0  0  0  0  0  0  0
    1.1996    1.5141   -0.3730 C   0  0  0  0  0  0  0  0  0  0  0  0
    2.5775    1.2846   -0.3990 C   0  0  0  0  0  0  0  0  0  0  0  0
    3.0943   -0.0071   -0.2671 C   0  0  0  0  0  0  0  0  0  0  0  0
    4.4765   -0.2843   -0.2427 N   0  0  0  0  0  0  0  0  0  0  0  0
    5.5053    0.6354   -0.3233 C   0  0  0  0  0  0  0  0  0  0  0  0
    5.3751    1.8479   -0.4720 O   0  0  0  0  0  0  0  0  0  0  0  0
    6.8913    0.1171   -0.2062 C   0  0  0  0  0  0  0  0  0  0  0  0
    7.9479    1.0279   -0.3517 C   0  0  0  0  0  0  0  0  0  0  0  0
    9.2878    0.6323   -0.2242 C   0  0  0  0  0  0  0  0  0  0  0  0
   10.3932    1.5960   -0.4242 C   0  0  0  0  0  0  0  0  0  0  0  0
   10.2454    2.9595   -0.0930 C   0  0  0  0  0  0  0  0  0  0  0  0
   11.2444    3.8977   -0.3788 C   0  0  0  0  0  0  0  0  0  0  0  0
   12.4299    3.4932   -0.9832 C   0  0  0  0  0  0  0  0  0  0  0  0
   12.6213    2.1491   -1.2840 C   0  0  0  0  0  0  0  0  0  0  0  0
   11.6158    1.2221   -1.0075 C   0  0  0  0  0  0  0  0  0  0  0  0
   11.8430   -0.0551   -1.3510 F   0  0  0  0  0  0  0  0  0  0  0  0
    9.4820   -0.7222    0.0599 C   0  0  0  0  0  0  0  0  0  0  0  0
    8.4925   -1.6470    0.1936 N   0  0  0  0  0  0  0  0  0  0  0  0
    7.2349   -1.1957    0.0496 C   0  0  0  0  0  0  0  0  0  0  0  0
    6.3184   -2.1900    0.1760 O   0  0  0  0  0  0  0  0  0  0  0  0
    2.2077   -1.0832   -0.1328 C   0  0  0  0  0  0  0  0  0  0  0  0
    0.8261   -0.8638   -0.1004 C   0  0  0  0  0  0  0  0  0  0  0  0
    0.3267    0.4388   -0.2077 C   0  0  0  0  0  0  0  0  0  0  0  0
   -1.1334    0.7072   -0.1123 C   0  0  0  0  0  0  0  0  0  0  0  0
   -1.9156   -0.2239    0.0618 O   0  0  0  0  0  0  0  0  0  0  0  0
   -3.1520    3.4037   -0.2093 H   0  0  0  0  0  0  0  0  0  0  0  0
   -3.2266    2.0788    0.9848 H   0  0  0  0  0  0  0  0  0  0  0  0
   -3.5242    1.7394   -0.7363 H   0  0  0  0  0  0  0  0  0  0  0  0
   -1.0395    4.0839   -0.4992 H   0  0  0  0  0  0  0  0  0  0  0  0
    1.3744    3.6893   -0.6749 H   0  0  0  0  0  0  0  0  0  0  0  0
    3.2295    2.1435   -0.5075 H   0  0  0  0  0  0  0  0  0  0  0  0
    4.7435   -1.2587   -0.1160 H   0  0  0  0  0  0  0  0  0  0  0  0
    7.7089    2.0634   -0.5915 H   0  0  0  0  0  0  0  0  0  0  0  0
    9.3368    3.3211    0.3870 H   0  0  0  0  0  0  0  0  0  0  0  0
   11.0866    4.9467   -0.1370 H   0  0  0  0  0  0  0  0  0  0  0  0
   13.1995    4.2227   -1.2214 H   0  0  0  0  0  0  0  0  0  0  0  0
   13.5418    1.8126   -1.7512 H   0  0  0  0  0  0  0  0  0  0  0  0
   10.4805   -1.1326    0.1951 H   0  0  0  0  0  0  0  0  0  0  0  0
    6.9227   -2.9436    0.3280 H   0  0  0  0  0  0  0  0  0  0  0  0
    2.5770   -2.1017   -0.0388 H   0  0  0  0  0  0  0  0  0  0  0  0
    0.1439   -1.7027    0.0186 H   0  0  0  0  0  0  0  0  0  0  0  0
  1  2  1  0  0  0  0
  1 30  1  0  0  0  0
  1 31  1  0  0  0  0
  1 32  1  0  0  0  0
  2  3  1  0  0  0  0
  2 28  1  0  0  0  0
  3  4  2  0  0  0  0
  3 33  1  0  0  0  0
  4  5  1  0  0  0  0
  4 34  1  0  0  0  0
  5  6  2  0  0  0  0
  5 27  1  0  0  0  0
  6  7  1  0  0  0  0
  6 35  1  0  0  0  0
  7  8  1  0  0  0  0
  7 25  2  0  0  0  0
  8  9  1  0  0  0  0
  8 36  1  0  0  0  0
  9 10  2  0  0  0  0
  9 11  1  0  0  0  0
 11 12  2  0  0  0  0
 11 23  1  0  0  0  0
 12 13  1  0  0  0  0
 12 37  1  0  0  0  0
 13 14  1  0  0  0  0
 13 21  2  0  0  0  0
 14 15  2  0  0  0  0
 14 19  1  0  0  0  0
 15 16  1  0  0  0  0
 15 38  1  0  0  0  0
 16 17  2  0  0  0  0
 16 39  1  0  0  0  0
 17 18  1  0  0  0  0
 17 40  1  0  0  0  0
 18 19  2  0  0  0  0
 18 41  1  0  0  0  0
 19 20  1  0  0  0  0
 21 22  1  0  0  0  0
 21 42  1  0  0  0  0
 22 23  2  0  0  0  0
 23 24  1  0  0  0  0
 24 43  1  0  0  0  0
 25 26  1  0  0  0  0
 25 44  1  0  0  0  0
 26 27  2  0  0  0  0
 26 45  1  0  0  0  0
 27 28  1  0  0  0  0
 28 29  2  0  0  0  0
M  END
$$$$
