
 OpenBabel01122422353D

 49 52  0  0  0  0  0  0  0  0999 V2000
    1.9157    0.2377   -0.1526 C   0  0  0  0  0  0  0  0  0  0  0  0
    3.2125   -0.1967   -0.7363 C   0  0  0  0  0  0  0  0  0  0  0  0
    4.1656    0.5824   -1.2728 C   0  0  0  0  0  0  0  0  0  0  0  0
    5.2520   -0.1884   -1.5812 N   0  0  0  0  0  0  0  0  0  0  0  0
    5.0057   -1.5256   -1.2184 C   0  0  0  0  0  0  0  0  0  0  0  0
    5.7767   -2.4592   -1.3905 O   0  0  0  0  0  0  0  0  0  0  0  0
    3.6823   -1.5048   -0.6843 N   0  0  0  0  0  0  0  0  0  0  0  0
    3.0126   -2.6844   -0.3111 C   0  0  0  0  0  0  0  0  0  0  0  0
    1.7573   -2.9889   -0.8534 C   0  0  0  0  0  0  0  0  0  0  0  0
    1.1190   -4.1886   -0.5319 C   0  0  0  0  0  0  0  0  0  0  0  0
    1.7234   -5.0856    0.3494 C   0  0  0  0  0  0  0  0  0  0  0  0
    2.9806   -4.7905    0.8921 C   0  0  0  0  0  0  0  0  0  0  0  0
    3.6643   -5.7148    1.8292 C   0  0  0  0  0  0  0  0  0  0  0  0
    4.3500   -5.2695    2.7436 O   0  0  0  0  0  0  0  0  0  0  0  0
    3.5022   -7.0589    1.5781 N   0  0  0  0  0  0  0  0  0  0  0  0
    4.1909   -8.0674    2.3488 C   0  0  0  0  0  0  0  0  0  0  0  0
    3.2171   -8.9468    3.0817 C   0  0  0  0  0  0  0  0  0  0  0  0
    2.8199   -8.6154    4.3828 C   0  0  0  0  0  0  0  0  0  0  0  0
    1.9332   -9.4374    5.0889 C   0  0  0  0  0  0  0  0  0  0  0  0
    1.3887  -10.6035    4.5193 C   0  0  0  0  0  0  0  0  0  0  0  0
    0.4756  -11.4785    5.2909 C   0  0  0  0  0  0  0  0  0  0  0  0
   -0.3947  -10.9712    6.2719 C   0  0  0  0  0  0  0  0  0  0  0  0
   -1.2112  -11.8237    7.0157 C   0  0  0  0  0  0  0  0  0  0  0  0
   -1.1522  -13.1791    6.7574 C   0  0  0  0  0  0  0  0  0  0  0  0
   -0.3479  -13.7218    5.8250 N   0  0  0  0  0  0  0  0  0  0  0  0
    0.4394  -12.8649    5.1241 C   0  0  0  0  0  0  0  0  0  0  0  0
    1.7784  -10.8940    3.1977 C   0  0  0  0  0  0  0  0  0  0  0  0
    1.2824  -11.9667    2.5621 F   0  0  0  0  0  0  0  0  0  0  0  0
    2.6783  -10.0914    2.4886 C   0  0  0  0  0  0  0  0  0  0  0  0
    3.6227   -3.5924    0.5604 C   0  0  0  0  0  0  0  0  0  0  0  0
    1.8245    1.3292   -0.1654 H   0  0  0  0  0  0  0  0  0  0  0  0
    1.8393   -0.0819    0.8917 H   0  0  0  0  0  0  0  0  0  0  0  0
    1.0675   -0.1680   -0.7093 H   0  0  0  0  0  0  0  0  0  0  0  0
    4.1615    1.6495   -1.4359 H   0  0  0  0  0  0  0  0  0  0  0  0
    6.1156    0.1133   -2.0089 H   0  0  0  0  0  0  0  0  0  0  0  0
    1.2992   -2.3263   -1.5829 H   0  0  0  0  0  0  0  0  0  0  0  0
    0.1586   -4.4265   -0.9802 H   0  0  0  0  0  0  0  0  0  0  0  0
    1.1999   -6.0002    0.6163 H   0  0  0  0  0  0  0  0  0  0  0  0
    3.0235   -7.3567    0.7392 H   0  0  0  0  0  0  0  0  0  0  0  0
    4.8943   -7.6115    3.0541 H   0  0  0  0  0  0  0  0  0  0  0  0
    4.7888   -8.6649    1.6490 H   0  0  0  0  0  0  0  0  0  0  0  0
    3.2122   -7.7191    4.8599 H   0  0  0  0  0  0  0  0  0  0  0  0
    1.6912   -9.1530    6.1128 H   0  0  0  0  0  0  0  0  0  0  0  0
   -0.4550   -9.9031    6.4684 H   0  0  0  0  0  0  0  0  0  0  0  0
   -1.8759  -11.4344    7.7798 H   0  0  0  0  0  0  0  0  0  0  0  0
   -1.7680  -13.8839    7.3083 H   0  0  0  0  0  0  0  0  0  0  0  0
    1.0792  -13.3647    4.4024 H   0  0  0  0  0  0  0  0  0  0  0  0
    2.9499  -10.3806    1.4800 H   0  0  0  0  0  0  0  0  0  0  0  0
    4.5920   -3.3620    0.9975 H   0  0  0  0  0  0  0  0  0  0  0  0
  1  2  1  0  0  0  0
  1 31  1  0  0  0  0
  1 32  1  0  0  0  0
  1 33  1  0  0  0  0
  2  3  2  0  0  0  0
  2  7  1  0  0  0  0
  3  4  1  0  0  0  0
  3 34  1  0  0  0  0
  4  5  1  0  0  0  0
  4 35  1  0  0  0  0
  5  6  2  0  0  0  0
  5  7  1  0  0  0  0
  7  8  1  0  0  0  0
  8  9  2  0  0  0  0
  8 30  1  0  0  0  0
  9 10  1  0  0  0  0
  9 36  1  0  0  0  0
 10 11  2  0  0  0  0
 10 37  1  0  0  0  0
 11 12  1  0  0  0  0
 11 38  1  0  0  0  0
 12 13  1  0  0  0  0
 12 30  2  0  0  0  0
 13 14  2  0  0  0  0
 13 15  1  0  0  0  0
 15 16  1  0  0  0  0
 15 39  1  0  0  0  0
 16 17  1  0  0  0  0
 16 40  1  0  0  0  0
 16 41  1  0  0  0  0
 17 18  2  0  0  0  0
 17 29  1  0  0  0  0
 18 19  1  0  0  0  0
 18 42  1  0  0  0  0
 19 20  2  0  0  0  0
 19 43  1  0  0  0  0
 20 21  1  0  0  0  0
 20 27  1  0  0  0  0
 21 22  2  0  0  0  0
 21 26  1  0  0  0  0
 22 23  1  0  0  0  0
 22 44  1  0  0  0  0
 23 24  2  0  0  0  0
 23 45  1  0  0  0  0
 24 25  1  0  0  0  0
 24 46  1  0  0  0  0
 25 26  2  0  0  0  0
 26 47  1  0  0  0  0
 27 28  1  0  0  0  0
 27 29  2  0  0  0  0
 29 48  1  0  0  0  0
 30 49  1  0  0  0  0
M  END
$$$$
