
 OpenBabel01122422363D

 59 62  0  0  1  0  0  0  0  0999 V2000
    1.0942   -0.1989   -0.1552 C   0  0  0  0  0  0  0  0  0  0  0  0
    2.4635   -0.3428    0.1867 O   0  0  0  0  0  0  0  0  0  0  0  0
    3.1283    0.7682    0.6316 C   0  0  0  0  0  0  0  0  0  0  0  0
    2.4887    1.8957    1.1519 C   0  0  0  0  0  0  0  0  0  0  0  0
    3.2263    2.9064    1.7709 C   0  0  0  0  0  0  0  0  0  0  0  0
    4.6091    2.7792    1.9331 C   0  0  0  0  0  0  0  0  0  0  0  0
    5.3723    3.7479    2.8117 C   0  0  0  0  0  0  0  0  0  0  0  0
    4.8137    3.8026    4.2616 C   0  0  3  0  0  0  0  0  0  0  0  0
    4.8824    2.4913    4.9211 N   0  0  0  0  0  0  0  0  0  0  0  0
    3.8511    2.0500    5.7152 C   0  0  0  0  0  0  0  0  0  0  0  0
    2.7741    2.6134    5.8522 O   0  0  0  0  0  0  0  0  0  0  0  0
    4.1577    0.8826    6.5660 C   0  0  0  0  0  0  0  0  0  0  0  0
    3.9743    1.0355    7.9492 C   0  0  0  0  0  0  0  0  0  0  0  0
    4.3346    0.0117    8.8137 C   0  0  0  0  0  0  0  0  0  0  0  0
    4.7672   -1.1786    8.2590 C   0  0  0  0  0  0  0  0  0  0  0  0
    5.0436   -2.3176    9.1082 C   0  0  0  0  0  0  0  0  0  0  0  0
    5.9027   -2.3125    9.9742 O   0  0  0  0  0  0  0  0  0  0  0  0
    4.1720   -3.3398    8.8112 N   0  0  0  0  0  0  0  0  0  0  0  0
    3.2653   -3.6837    9.8844 C   0  0  0  0  0  0  0  0  0  0  0  0
    3.9160   -3.6716    7.4895 C   0  0  0  0  0  0  0  0  0  0  0  0
    3.2327   -4.6263    7.1345 O   0  0  0  0  0  0  0  0  0  0  0  0
    4.4484   -2.7929    6.5350 N   0  0  0  0  0  0  0  0  0  0  0  0
    4.6489   -1.4342    6.8962 C   0  0  0  0  0  0  0  0  0  0  0  0
    4.4758   -0.3839    6.0204 C   0  0  0  0  0  0  0  0  0  0  0  0
    5.4617    4.8674    5.1493 C   0  0  0  0  0  0  0  0  0  0  0  0
    4.6821    5.4473    6.1692 C   0  0  0  0  0  0  0  0  0  0  0  0
    5.2166    6.4239    7.0119 C   0  0  0  0  0  0  0  0  0  0  0  0
    6.5348    6.8342    6.8529 C   0  0  0  0  0  0  0  0  0  0  0  0
    7.3216    6.2626    5.8538 C   0  0  0  0  0  0  0  0  0  0  0  0
    6.7858    5.2774    5.0143 C   0  0  0  0  0  0  0  0  0  0  0  0
    5.2607    1.7030    1.3190 C   0  0  0  0  0  0  0  0  0  0  0  0
    4.5317    0.7162    0.6429 C   0  0  0  0  0  0  0  0  0  0  0  0
    5.3038   -0.2652    0.0713 O   0  0  0  0  0  0  0  0  0  0  0  0
    4.7794   -0.8238   -1.1332 C   0  0  0  0  0  0  0  0  0  0  0  0
    0.7457   -1.1685   -0.5234 H   0  0  0  0  0  0  0  0  0  0  0  0
    0.9769    0.5317   -0.9613 H   0  0  0  0  0  0  0  0  0  0  0  0
    0.4813    0.0596    0.7135 H   0  0  0  0  0  0  0  0  0  0  0  0
    1.4098    2.0028    1.1393 H   0  0  0  0  0  0  0  0  0  0  0  0
    2.6951    3.7599    2.1872 H   0  0  0  0  0  0  0  0  0  0  0  0
    5.3314    4.7435    2.3507 H   0  0  0  0  0  0  0  0  0  0  0  0
    6.4288    3.4520    2.8302 H   0  0  0  0  0  0  0  0  0  0  0  0
    3.7525    4.0794    4.1827 H   0  0  0  0  0  0  0  0  0  0  0  0
    5.7898    2.0509    4.9844 H   0  0  0  0  0  0  0  0  0  0  0  0
    3.5268    1.9442    8.3403 H   0  0  0  0  0  0  0  0  0  0  0  0
    4.1805    0.1014    9.8856 H   0  0  0  0  0  0  0  0  0  0  0  0
    2.8298   -2.7365   10.2400 H   0  0  0  0  0  0  0  0  0  0  0  0
    3.8153   -4.1164   10.7214 H   0  0  0  0  0  0  0  0  0  0  0  0
    2.4511   -4.3233    9.5487 H   0  0  0  0  0  0  0  0  0  0  0  0
    4.1835   -3.0095    5.5801 H   0  0  0  0  0  0  0  0  0  0  0  0
    4.4699   -0.5274    4.9460 H   0  0  0  0  0  0  0  0  0  0  0  0
    3.6473    5.1393    6.3140 H   0  0  0  0  0  0  0  0  0  0  0  0
    4.5991    6.8644    7.7917 H   0  0  0  0  0  0  0  0  0  0  0  0
    6.9518    7.5984    7.5029 H   0  0  0  0  0  0  0  0  0  0  0  0
    8.3518    6.5860    5.7250 H   0  0  0  0  0  0  0  0  0  0  0  0
    7.4380    4.8590    4.2488 H   0  0  0  0  0  0  0  0  0  0  0  0
    6.3428    1.6072    1.3758 H   0  0  0  0  0  0  0  0  0  0  0  0
    5.6222   -1.1291   -1.7601 H   0  0  0  0  0  0  0  0  0  0  0  0
    4.1875   -0.1080   -1.7169 H   0  0  0  0  0  0  0  0  0  0  0  0
    4.1960   -1.7211   -0.9047 H   0  0  0  0  0  0  0  0  0  0  0  0
  1  2  1  0  0  0  0
  1 35  1  0  0  0  0
  1 36  1  0  0  0  0
  1 37  1  0  0  0  0
  2  3  1  0  0  0  0
  3  4  2  0  0  0  0
  3 32  1  0  0  0  0
  4  5  1  0  0  0  0
  4 38  1  0  0  0  0
  5  6  2  0  0  0  0
  5 39  1  0  0  0  0
  6  7  1  0  0  0  0
  6 31  1  0  0  0  0
  7  8  1  0  0  0  0
  7 40  1  0  0  0  0
  7 41  1  0  0  0  0
  8  9  1  0  0  0  0
  8 25  1  0  0  0  0
  8 42  1  0  0  0  0
  9 10  1  0  0  0  0
  9 43  1  0  0  0  0
 10 11  2  0  0  0  0
 10 12  1  0  0  0  0
 12 13  2  0  0  0  0
 12 24  1  0  0  0  0
 13 14  1  0  0  0  0
 13 44  1  0  0  0  0
 14 15  2  0  0  0  0
 14 45  1  0  0  0  0
 15 16  1  0  0  0  0
 15 23  1  0  0  0  0
 16 17  2  0  0  0  0
 16 18  1  0  0  0  0
 18 19  1  0  0  0  0
 18 20  1  0  0  0  0
 19 46  1  0  0  0  0
 19 47  1  0  0  0  0
 19 48  1  0  0  0  0
 20 21  2  0  0  0  0
 20 22  1  0  0  0  0
 22 23  1  0  0  0  0
 22 49  1  0  0  0  0
 23 24  2  0  0  0  0
 24 50  1  0  0  0  0
 25 26  2  0  0  0  0
 25 30  1  0  0  0  0
 26 27  1  0  0  0  0
 26 51  1  0  0  0  0
 27 28  2  0  0  0  0
 27 52  1  0  0  0  0
 28 29  1  0  0  0  0
 28 53  1  0  0  0  0
 29 30  2  0  0  0  0
 29 54  1  0  0  0  0
 30 55  1  0  0  0  0
 31 32  2  0  0  0  0
 31 56  1  0  0  0  0
 32 33  1  0  0  0  0
 33 34  1  0  0  0  0
 34 57  1  0  0  0  0
 34 58  1  0  0  0  0
 34 59  1  0  0  0  0
M  END
$$$$
