
 OpenBabel01122422363D

 40 43  0  0  0  0  0  0  0  0999 V2000
    1.1387    0.5836   -0.5078 O   0  0  0  0  0  0  0  0  0  0  0  0
    2.2642    0.1838   -0.2040 C   0  0  0  0  0  0  0  0  0  0  0  0
    2.8043   -1.0485   -0.5372 N   0  0  0  0  0  0  0  0  0  0  0  0
    2.1476   -2.0189   -1.3283 C   0  0  0  0  0  0  0  0  0  0  0  0
    1.0751   -1.6777   -2.1639 C   0  0  0  0  0  0  0  0  0  0  0  0
    0.3660   -2.6487   -2.8587 C   0  0  0  0  0  0  0  0  0  0  0  0
    0.7320   -3.9762   -2.7284 C   0  0  0  0  0  0  0  0  0  0  0  0
    0.0025   -4.8849   -3.3940 F   0  0  0  0  0  0  0  0  0  0  0  0
    1.8173   -4.3568   -1.9253 C   0  0  0  0  0  0  0  0  0  0  0  0
    2.1206   -5.7576   -1.7229 C   0  0  0  0  0  0  0  0  0  0  0  0
    1.1965   -6.7731   -1.7543 C   0  0  0  0  0  0  0  0  0  0  0  0
    1.8853   -7.9163   -1.4356 N   0  0  0  0  0  0  0  0  0  0  0  0
    1.3788   -9.2270   -1.2819 C   0  0  0  0  0  0  0  0  0  0  0  0
    0.0380   -9.5244   -1.5552 C   0  0  0  0  0  0  0  0  0  0  0  0
   -0.8164   -8.6076   -2.0280 F   0  0  0  0  0  0  0  0  0  0  0  0
   -0.4792  -10.8044   -1.3567 C   0  0  0  0  0  0  0  0  0  0  0  0
    0.3417  -11.8204   -0.8821 C   0  0  0  0  0  0  0  0  0  0  0  0
    1.6820  -11.5478   -0.6211 C   0  0  0  0  0  0  0  0  0  0  0  0
    2.1954  -10.2633   -0.8236 C   0  0  0  0  0  0  0  0  0  0  0  0
    3.4910  -10.0751   -0.5390 F   0  0  0  0  0  0  0  0  0  0  0  0
    3.1878   -7.5893   -1.2279 N   0  0  0  0  0  0  0  0  0  0  0  0
    3.3344   -6.2764   -1.3870 N   0  0  0  0  0  0  0  0  0  0  0  0
    2.5496   -3.3600   -1.2518 C   0  0  0  0  0  0  0  0  0  0  0  0
    3.1054    1.0802    0.6357 C   0  0  0  0  0  0  0  0  0  0  0  0
    2.5413    2.2618    1.0826 C   0  0  0  0  0  0  0  0  0  0  0  0
    3.3641    3.0690    1.8167 C   0  0  0  0  0  0  0  0  0  0  0  0
    4.6406    2.7513    2.0920 N   0  0  0  0  0  0  0  0  0  0  0  0
    5.0844    1.5784    1.6115 C   0  0  0  0  0  0  0  0  0  0  0  0
    4.3775    0.6944    0.8913 N   0  0  0  0  0  0  0  0  0  0  0  0
    3.6688   -1.3007   -0.0638 H   0  0  0  0  0  0  0  0  0  0  0  0
    0.7641   -0.6466   -2.3012 H   0  0  0  0  0  0  0  0  0  0  0  0
   -0.4796   -2.3757   -3.4807 H   0  0  0  0  0  0  0  0  0  0  0  0
    0.1355   -6.7499   -1.9369 H   0  0  0  0  0  0  0  0  0  0  0  0
   -1.5275  -10.9927   -1.5753 H   0  0  0  0  0  0  0  0  0  0  0  0
   -0.0607  -12.8165   -0.7183 H   0  0  0  0  0  0  0  0  0  0  0  0
    2.3402  -12.3292   -0.2507 H   0  0  0  0  0  0  0  0  0  0  0  0
    3.3838   -3.6496   -0.6158 H   0  0  0  0  0  0  0  0  0  0  0  0
    1.5166    2.5327    0.8625 H   0  0  0  0  0  0  0  0  0  0  0  0
    3.0112    4.0194    2.2090 H   0  0  0  0  0  0  0  0  0  0  0  0
    6.1185    1.3305    1.8278 H   0  0  0  0  0  0  0  0  0  0  0  0
  1  2  2  0  0  0  0
  2  3  1  0  0  0  0
  2 24  1  0  0  0  0
  3  4  1  0  0  0  0
  3 30  1  0  0  0  0
  4  5  2  0  0  0  0
  4 23  1  0  0  0  0
  5  6  1  0  0  0  0
  5 31  1  0  0  0  0
  6  7  2  0  0  0  0
  6 32  1  0  0  0  0
  7  8  1  0  0  0  0
  7  9  1  0  0  0  0
  9 10  1  0  0  0  0
  9 23  2  0  0  0  0
 10 11  2  0  0  0  0
 10 22  1  0  0  0  0
 11 12  1  0  0  0  0
 11 33  1  0  0  0  0
 12 13  1  0  0  0  0
 12 21  1  0  0  0  0
 13 14  2  0  0  0  0
 13 19  1  0  0  0  0
 14 15  1  0  0  0  0
 14 16  1  0  0  0  0
 16 17  2  0  0  0  0
 16 34  1  0  0  0  0
 17 18  1  0  0  0  0
 17 35  1  0  0  0  0
 18 19  2  0  0  0  0
 18 36  1  0  0  0  0
 19 20  1  0  0  0  0
 21 22  2  0  0  0  0
 23 37  1  0  0  0  0
 24 25  2  0  0  0  0
 24 29  1  0  0  0  0
 25 26  1  0  0  0  0
 25 38  1  0  0  0  0
 26 27  2  0  0  0  0
 26 39  1  0  0  0  0
 27 28  1  0  0  0  0
 28 29  2  0  0  0  0
 28 40  1  0  0  0  0
M  END
$$$$
