
 OpenBabel01122422363D

 42 45  0  0  0  0  0  0  0  0999 V2000
    1.0199    0.3410   -0.5465 O   0  0  0  0  0  0  0  0  0  0  0  0
    2.1787    0.0968   -0.2224 C   0  0  0  0  0  0  0  0  0  0  0  0
    2.7913    0.5554    0.9289 N   0  0  0  0  0  0  0  0  0  0  0  0
    2.1060    1.1828    2.0053 C   0  0  0  0  0  0  0  0  0  0  0  0
    0.6998    1.0815    2.1316 C   0  0  0  0  0  0  0  0  0  0  0  0
    0.1577    1.7331    3.2484 C   0  0  0  0  0  0  0  0  0  0  0  0
   -1.1183    1.8065    3.6594 N   0  0  0  0  0  0  0  0  0  0  0  0
   -1.0731    2.5339    4.8041 N   0  0  0  0  0  0  0  0  0  0  0  0
   -2.2912    2.7589    5.5749 C   0  0  0  0  0  0  0  0  0  0  0  0
   -2.1643    2.2720    6.8400 F   0  0  0  0  0  0  0  0  0  0  0  0
   -2.5591    4.0872    5.6969 F   0  0  0  0  0  0  0  0  0  0  0  0
    0.1896    2.9601    5.1377 C   0  0  0  0  0  0  0  0  0  0  0  0
    1.0018    2.4453    4.1657 C   0  0  0  0  0  0  0  0  0  0  0  0
    2.3833    2.5746    4.0965 C   0  0  0  0  0  0  0  0  0  0  0  0
    2.9047    1.8902    2.9690 C   0  0  0  0  0  0  0  0  0  0  0  0
    3.0313   -0.7220   -1.1462 C   0  0  0  0  0  0  0  0  0  0  0  0
    2.6087   -0.7731   -2.4225 C   0  0  0  0  0  0  0  0  0  0  0  0
    3.1376   -1.6461   -3.3762 N   0  0  0  0  0  0  0  0  0  0  0  0
    2.5749   -1.6914   -4.7109 C   0  0  0  0  0  0  0  0  0  0  0  0
    2.5560   -2.8793   -5.4617 C   0  0  0  0  0  0  0  0  0  0  0  0
    1.9890   -2.9241   -6.7407 C   0  0  0  0  0  0  0  0  0  0  0  0
    1.4325   -1.7782   -7.2861 C   0  0  0  0  0  0  0  0  0  0  0  0
    0.8962   -1.8191   -8.5123 F   0  0  0  0  0  0  0  0  0  0  0  0
    1.4235   -0.5900   -6.5719 C   0  0  0  0  0  0  0  0  0  0  0  0
    1.9873   -0.5480   -5.2907 C   0  0  0  0  0  0  0  0  0  0  0  0
    4.1769   -2.5301   -3.0119 C   0  0  0  0  0  0  0  0  0  0  0  0
    4.7601   -3.3320   -3.7385 O   0  0  0  0  0  0  0  0  0  0  0  0
    4.6404   -2.4548   -1.5928 C   0  0  0  0  0  0  0  0  0  0  0  0
    4.0961   -1.5963   -0.7215 C   0  0  0  0  0  0  0  0  0  0  0  0
    3.8008    0.5248    0.9798 H   0  0  0  0  0  0  0  0  0  0  0  0
    0.0526    0.5325    1.4652 H   0  0  0  0  0  0  0  0  0  0  0  0
   -3.1325    2.2625    5.0815 H   0  0  0  0  0  0  0  0  0  0  0  0
    0.3691    3.5533    6.0235 H   0  0  0  0  0  0  0  0  0  0  0  0
    2.9983    3.1151    4.8027 H   0  0  0  0  0  0  0  0  0  0  0  0
    3.9856    1.9298    2.8294 H   0  0  0  0  0  0  0  0  0  0  0  0
    1.7556   -0.1754   -2.7316 H   0  0  0  0  0  0  0  0  0  0  0  0
    2.9437   -3.8102   -5.0564 H   0  0  0  0  0  0  0  0  0  0  0  0
    1.9766   -3.8513   -7.3045 H   0  0  0  0  0  0  0  0  0  0  0  0
    0.9848    0.2989   -7.0147 H   0  0  0  0  0  0  0  0  0  0  0  0
    1.9869    0.4109   -4.7793 H   0  0  0  0  0  0  0  0  0  0  0  0
    5.4277   -3.1469   -1.3183 H   0  0  0  0  0  0  0  0  0  0  0  0
    4.4288   -1.5899    0.3103 H   0  0  0  0  0  0  0  0  0  0  0  0
  1  2  2  0  0  0  0
  2  3  1  0  0  0  0
  2 16  1  0  0  0  0
  3  4  1  0  0  0  0
  3 30  1  0  0  0  0
  4  5  2  0  0  0  0
  4 15  1  0  0  0  0
  5  6  1  0  0  0  0
  5 31  1  0  0  0  0
  6  7  2  0  0  0  0
  6 13  1  0  0  0  0
  7  8  1  0  0  0  0
  8  9  1  0  0  0  0
  8 12  1  0  0  0  0
  9 10  1  0  0  0  0
  9 11  1  0  0  0  0
  9 32  1  0  0  0  0
 12 13  2  0  0  0  0
 12 33  1  0  0  0  0
 13 14  1  0  0  0  0
 14 15  2  0  0  0  0
 14 34  1  0  0  0  0
 15 35  1  0  0  0  0
 16 17  2  0  0  0  0
 16 29  1  0  0  0  0
 17 18  1  0  0  0  0
 17 36  1  0  0  0  0
 18 19  1  0  0  0  0
 18 26  1  0  0  0  0
 19 20  2  0  0  0  0
 19 25  1  0  0  0  0
 20 21  1  0  0  0  0
 20 37  1  0  0  0  0
 21 22  2  0  0  0  0
 21 38  1  0  0  0  0
 22 23  1  0  0  0  0
 22 24  1  0  0  0  0
 24 25  2  0  0  0  0
 24 39  1  0  0  0  0
 25 40  1  0  0  0  0
 26 27  2  0  0  0  0
 26 28  1  0  0  0  0
 28 29  2  0  0  0  0
 28 41  1  0  0  0  0
 29 42  1  0  0  0  0
M  END
$$$$
