
 OpenBabel01122422353D

 55 58  0  0  0  0  0  0  0  0999 V2000
    6.0953    2.3954    3.0827 C   0  0  0  0  0  0  0  0  0  0  0  0
    5.8034    3.4031    2.0373 C   0  0  0  0  0  0  0  0  0  0  0  0
    6.7367    4.3453    1.8623 N   0  0  0  0  0  0  0  0  0  0  0  0
    6.1619    5.1796    0.9787 N   0  0  0  0  0  0  0  0  0  0  0  0
    6.7516    6.4310    0.6792 C   0  0  0  0  0  0  0  0  0  0  0  0
    8.0442    6.7055    1.1513 C   0  0  0  0  0  0  0  0  0  0  0  0
    8.6183    7.9559    0.9267 C   0  0  0  0  0  0  0  0  0  0  0  0
    7.8981    8.9344    0.2471 C   0  0  0  0  0  0  0  0  0  0  0  0
    6.6134    8.6617   -0.2308 C   0  0  0  0  0  0  0  0  0  0  0  0
    6.0393    7.4045   -0.0299 C   0  0  0  0  0  0  0  0  0  0  0  0
    4.9692    4.7850    0.4856 N   0  0  0  0  0  0  0  0  0  0  0  0
    4.7072    3.6384    1.1456 C   0  0  0  0  0  0  0  0  0  0  0  0
    3.4889    2.8240    0.8655 C   0  0  0  0  0  0  0  0  0  0  0  0
    3.4674    1.6230    1.1586 O   0  0  0  0  0  0  0  0  0  0  0  0
    2.3793    3.4071    0.1968 N   0  0  0  0  0  0  0  0  0  0  0  0
    1.1730    2.5954   -0.0674 C   0  0  0  0  0  0  0  0  0  0  0  0
    1.1279    1.4326   -1.0753 C   0  0  0  0  0  0  0  0  0  0  0  0
    2.2800    0.7494   -1.3285 N   0  0  0  0  0  0  0  0  0  0  0  0
    0.0744    1.0319   -1.5590 O   0  0  0  0  0  0  0  0  0  0  0  0
    2.1227    4.8599    0.2601 C   0  0  0  0  0  0  0  0  0  0  0  0
    2.3450    5.6300   -1.0258 C   0  0  0  0  0  0  0  0  0  0  0  0
    2.9640    5.0683   -2.1410 C   0  0  0  0  0  0  0  0  0  0  0  0
    3.2191    5.8368   -3.2820 C   0  0  0  0  0  0  0  0  0  0  0  0
    2.8478    7.1914   -3.3775 C   0  0  0  0  0  0  0  0  0  0  0  0
    3.1278    7.9588   -4.6196 C   0  0  0  0  0  0  0  0  0  0  0  0
    3.0900    7.3206   -5.8767 C   0  0  0  0  0  0  0  0  0  0  0  0
    3.4297    7.9860   -7.0578 C   0  0  0  0  0  0  0  0  0  0  0  0
    3.7920    9.3255   -7.0178 C   0  0  0  0  0  0  0  0  0  0  0  0
    3.8050    9.9968   -5.7978 C   0  0  0  0  0  0  0  0  0  0  0  0
    3.4783    9.3208   -4.6118 C   0  0  0  0  0  0  0  0  0  0  0  0
    2.2193    7.7495   -2.2534 C   0  0  0  0  0  0  0  0  0  0  0  0
    1.9755    6.9841   -1.0969 C   0  0  0  0  0  0  0  0  0  0  0  0
    6.5191    2.9046    3.9622 H   0  0  0  0  0  0  0  0  0  0  0  0
    6.8592    1.6919    2.7355 H   0  0  0  0  0  0  0  0  0  0  0  0
    5.2145    1.8499    3.4185 H   0  0  0  0  0  0  0  0  0  0  0  0
    8.6165    5.9538    1.6911 H   0  0  0  0  0  0  0  0  0  0  0  0
    9.6203    8.1622    1.2929 H   0  0  0  0  0  0  0  0  0  0  0  0
    8.3388    9.9154    0.0906 H   0  0  0  0  0  0  0  0  0  0  0  0
    6.0552    9.4327   -0.7543 H   0  0  0  0  0  0  0  0  0  0  0  0
    5.0353    7.2131   -0.3995 H   0  0  0  0  0  0  0  0  0  0  0  0
    0.4140    3.2790   -0.4700 H   0  0  0  0  0  0  0  0  0  0  0  0
    0.8092    2.2132    0.8901 H   0  0  0  0  0  0  0  0  0  0  0  0
    3.0051    0.7662   -0.6227 H   0  0  0  0  0  0  0  0  0  0  0  0
    2.1590   -0.1213   -1.8399 H   0  0  0  0  0  0  0  0  0  0  0  0
    2.6931    5.3141    1.0748 H   0  0  0  0  0  0  0  0  0  0  0  0
    1.0734    4.9929    0.5572 H   0  0  0  0  0  0  0  0  0  0  0  0
    3.2861    4.0292   -2.1379 H   0  0  0  0  0  0  0  0  0  0  0  0
    3.7420    5.3522   -4.1036 H   0  0  0  0  0  0  0  0  0  0  0  0
    2.7934    6.2767   -5.9528 H   0  0  0  0  0  0  0  0  0  0  0  0
    3.4132    7.4493   -8.0028 H   0  0  0  0  0  0  0  0  0  0  0  0
    4.0635    9.8427   -7.9342 H   0  0  0  0  0  0  0  0  0  0  0  0
    4.0838   11.0472   -5.7671 H   0  0  0  0  0  0  0  0  0  0  0  0
    3.5285    9.8756   -3.6781 H   0  0  0  0  0  0  0  0  0  0  0  0
    1.9001    8.7897   -2.2590 H   0  0  0  0  0  0  0  0  0  0  0  0
    1.4990    7.4642   -0.2434 H   0  0  0  0  0  0  0  0  0  0  0  0
  1  2  1  0  0  0  0
  1 33  1  0  0  0  0
  1 34  1  0  0  0  0
  1 35  1  0  0  0  0
  2  3  2  0  0  0  0
  2 12  1  0  0  0  0
  3  4  1  0  0  0  0
  4  5  1  0  0  0  0
  4 11  1  0  0  0  0
  5  6  2  0  0  0  0
  5 10  1  0  0  0  0
  6  7  1  0  0  0  0
  6 36  1  0  0  0  0
  7  8  2  0  0  0  0
  7 37  1  0  0  0  0
  8  9  1  0  0  0  0
  8 38  1  0  0  0  0
  9 10  2  0  0  0  0
  9 39  1  0  0  0  0
 10 40  1  0  0  0  0
 11 12  2  0  0  0  0
 12 13  1  0  0  0  0
 13 14  2  0  0  0  0
 13 15  1  0  0  0  0
 15 16  1  0  0  0  0
 15 20  1  0  0  0  0
 16 17  1  0  0  0  0
 16 41  1  0  0  0  0
 16 42  1  0  0  0  0
 17 18  1  0  0  0  0
 17 19  2  0  0  0  0
 18 43  1  0  0  0  0
 18 44  1  0  0  0  0
 20 21  1  0  0  0  0
 20 45  1  0  0  0  0
 20 46  1  0  0  0  0
 21 22  2  0  0  0  0
 21 32  1  0  0  0  0
 22 23  1  0  0  0  0
 22 47  1  0  0  0  0
 23 24  2  0  0  0  0
 23 48  1  0  0  0  0
 24 25  1  0  0  0  0
 24 31  1  0  0  0  0
 25 26  2  0  0  0  0
 25 30  1  0  0  0  0
 26 27  1  0  0  0  0
 26 49  1  0  0  0  0
 27 28  2  0  0  0  0
 27 50  1  0  0  0  0
 28 29  1  0  0  0  0
 28 51  1  0  0  0  0
 29 30  2  0  0  0  0
 29 52  1  0  0  0  0
 30 53  1  0  0  0  0
 31 32  2  0  0  0  0
 31 54  1  0  0  0  0
 32 55  1  0  0  0  0
M  END
$$$$
