
 OpenBabel01122422363D

 42 45  0  0  0  0  0  0  0  0999 V2000
    0.9333    0.1878   -0.2917 O   0  0  0  0  0  0  0  0  0  0  0  0
    2.1353   -0.0240   -0.1465 C   0  0  0  0  0  0  0  0  0  0  0  0
    2.7906   -0.1434    1.0655 N   0  0  0  0  0  0  0  0  0  0  0  0
    2.1623   -0.1287    2.3355 C   0  0  0  0  0  0  0  0  0  0  0  0
    0.7819   -0.2839    2.4997 C   0  0  0  0  0  0  0  0  0  0  0  0
    0.1666   -0.1985    3.7522 C   0  0  0  0  0  0  0  0  0  0  0  0
    0.9883    0.0474    4.8536 C   0  0  0  0  0  0  0  0  0  0  0  0
    2.3690    0.1673    4.7384 C   0  0  0  0  0  0  0  0  0  0  0  0
    2.9727    0.0574    3.4674 C   0  0  0  0  0  0  0  0  0  0  0  0
    2.8136    0.4026    6.0582 C   0  0  0  0  0  0  0  0  0  0  0  0
    1.8176    0.4384    6.9477 N   0  0  0  0  0  0  0  0  0  0  0  0
    0.7088    0.2244    6.1905 N   0  0  0  0  0  0  0  0  0  0  0  0
   -0.6173    0.2144    6.7971 C   0  0  0  0  0  0  0  0  0  0  0  0
   -1.4187    1.1745    6.2585 F   0  0  0  0  0  0  0  0  0  0  0  0
   -1.2487   -0.9746    6.5920 F   0  0  0  0  0  0  0  0  0  0  0  0
    3.0054   -0.1204   -1.3627 C   0  0  0  0  0  0  0  0  0  0  0  0
    2.5541    0.5112   -2.4616 C   0  0  0  0  0  0  0  0  0  0  0  0
    3.1481    0.3792   -3.7192 N   0  0  0  0  0  0  0  0  0  0  0  0
    2.5669    1.0337   -4.8772 C   0  0  0  0  0  0  0  0  0  0  0  0
    2.6266    0.4410   -6.1501 C   0  0  0  0  0  0  0  0  0  0  0  0
    2.0450    1.0497   -7.2700 C   0  0  0  0  0  0  0  0  0  0  0  0
    1.3850    2.2674   -7.1442 C   0  0  0  0  0  0  0  0  0  0  0  0
    1.3028    2.8731   -5.8954 C   0  0  0  0  0  0  0  0  0  0  0  0
    1.8849    2.2618   -4.7819 C   0  0  0  0  0  0  0  0  0  0  0  0
    1.8150    2.9289   -3.6188 F   0  0  0  0  0  0  0  0  0  0  0  0
    4.2870   -0.4409   -3.8728 C   0  0  0  0  0  0  0  0  0  0  0  0
    4.9350   -0.6223   -4.9015 O   0  0  0  0  0  0  0  0  0  0  0  0
    4.7699   -1.1384   -2.6457 C   0  0  0  0  0  0  0  0  0  0  0  0
    4.1600   -0.9782   -1.4653 C   0  0  0  0  0  0  0  0  0  0  0  0
    3.8014   -0.1136    1.0602 H   0  0  0  0  0  0  0  0  0  0  0  0
    0.1292   -0.4823    1.6543 H   0  0  0  0  0  0  0  0  0  0  0  0
   -0.9111   -0.3043    3.8461 H   0  0  0  0  0  0  0  0  0  0  0  0
    4.0493    0.1620    3.3806 H   0  0  0  0  0  0  0  0  0  0  0  0
    3.8270    0.5594    6.4048 H   0  0  0  0  0  0  0  0  0  0  0  0
   -0.5265    0.3894    7.8727 H   0  0  0  0  0  0  0  0  0  0  0  0
    1.6463    1.1053   -2.4077 H   0  0  0  0  0  0  0  0  0  0  0  0
    3.0940   -0.5295   -6.2975 H   0  0  0  0  0  0  0  0  0  0  0  0
    2.1079    0.5609   -8.2398 H   0  0  0  0  0  0  0  0  0  0  0  0
    0.9397    2.7413   -8.0150 H   0  0  0  0  0  0  0  0  0  0  0  0
    0.7970    3.8266   -5.7768 H   0  0  0  0  0  0  0  0  0  0  0  0
    5.6254   -1.7892   -2.7781 H   0  0  0  0  0  0  0  0  0  0  0  0
    4.5100   -1.5249   -0.5967 H   0  0  0  0  0  0  0  0  0  0  0  0
  1  2  2  0  0  0  0
  2  3  1  0  0  0  0
  2 16  1  0  0  0  0
  3  4  1  0  0  0  0
  3 30  1  0  0  0  0
  4  5  2  0  0  0  0
  4  9  1  0  0  0  0
  5  6  1  0  0  0  0
  5 31  1  0  0  0  0
  6  7  2  0  0  0  0
  6 32  1  0  0  0  0
  7  8  1  0  0  0  0
  7 12  1  0  0  0  0
  8  9  2  0  0  0  0
  8 10  1  0  0  0  0
  9 33  1  0  0  0  0
 10 11  2  0  0  0  0
 10 34  1  0  0  0  0
 11 12  1  0  0  0  0
 12 13  1  0  0  0  0
 13 14  1  0  0  0  0
 13 15  1  0  0  0  0
 13 35  1  0  0  0  0
 16 17  2  0  0  0  0
 16 29  1  0  0  0  0
 17 18  1  0  0  0  0
 17 36  1  0  0  0  0
 18 19  1  0  0  0  0
 18 26  1  0  0  0  0
 19 20  2  0  0  0  0
 19 24  1  0  0  0  0
 20 21  1  0  0  0  0
 20 37  1  0  0  0  0
 21 22  2  0  0  0  0
 21 38  1  0  0  0  0
 22 23  1  0  0  0  0
 22 39  1  0  0  0  0
 23 24  2  0  0  0  0
 23 40  1  0  0  0  0
 24 25  1  0  0  0  0
 26 27  2  0  0  0  0
 26 28  1  0  0  0  0
 28 29  2  0  0  0  0
 28 41  1  0  0  0  0
 29 42  1  0  0  0  0
M  END
$$$$
