
 OpenBabel01122422363D

 45 48  0  0  0  0  0  0  0  0999 V2000
    0.7888   -0.2376    0.1288 C   0  0  0  0  0  0  0  0  0  0  0  0
    1.3910   -0.6747   -1.1691 C   0  0  0  0  0  0  0  0  0  0  0  0
    1.2526    0.0161   -2.3111 C   0  0  0  0  0  0  0  0  0  0  0  0
    1.9165   -0.3968   -3.5151 C   0  0  0  0  0  0  0  0  0  0  0  0
    2.7140   -1.4707   -3.4986 C   0  0  0  0  0  0  0  0  0  0  0  0
    2.8747   -2.2473   -2.3593 N   0  0  0  0  0  0  0  0  0  0  0  0
    3.7463   -3.3297   -2.4184 C   0  0  0  0  0  0  0  0  0  0  0  0
    4.4889   -3.5496   -3.3735 O   0  0  0  0  0  0  0  0  0  0  0  0
    3.7628   -4.2105   -1.2287 C   0  0  0  0  0  0  0  0  0  0  0  0
    4.5065   -5.4839   -1.2487 C   0  0  0  0  0  0  0  0  0  0  0  0
    4.8653   -6.0520   -2.2697 O   0  0  0  0  0  0  0  0  0  0  0  0
    4.7323   -5.9534    0.0053 O   0  0  0  0  0  0  0  0  0  0  0  0
    5.3887   -7.2320    0.0359 C   0  0  0  0  0  0  0  0  0  0  0  0
    4.4529   -8.3460   -0.2643 C   0  0  0  0  0  0  0  0  0  0  0  0
    4.1953   -8.9715   -1.4629 C   0  0  0  0  0  0  0  0  0  0  0  0
    3.2558   -9.9307   -1.2465 O   0  0  0  0  0  0  0  0  0  0  0  0
    2.9800   -9.8332    0.0933 C   0  0  0  0  0  0  0  0  0  0  0  0
    1.9837  -10.7581    0.6142 C   0  0  0  0  0  0  0  0  0  0  0  0
    0.8729  -11.0595   -0.2041 C   0  0  0  0  0  0  0  0  0  0  0  0
   -0.1450  -11.9075    0.2296 C   0  0  0  0  0  0  0  0  0  0  0  0
   -0.0740  -12.4721    1.4943 C   0  0  0  0  0  0  0  0  0  0  0  0
    1.0153  -12.1885    2.3176 C   0  0  0  0  0  0  0  0  0  0  0  0
    2.0635  -11.3363    1.8957 C   0  0  0  0  0  0  0  0  0  0  0  0
    3.2003  -11.1421    2.8767 C   0  0  0  0  0  0  0  0  0  0  0  0
    4.2963  -10.4656    2.4542 F   0  0  0  0  0  0  0  0  0  0  0  0
    2.7864  -10.5138    4.0160 F   0  0  0  0  0  0  0  0  0  0  0  0
    3.6928  -12.3478    3.2989 F   0  0  0  0  0  0  0  0  0  0  0  0
    3.6412   -8.8790    0.7104 N   0  0  0  0  0  0  0  0  0  0  0  0
    3.0291   -3.8164   -0.1756 C   0  0  0  0  0  0  0  0  0  0  0  0
    2.2898   -2.6701   -0.1045 N   0  0  0  0  0  0  0  0  0  0  0  0
    2.2140   -1.9346   -1.1737 C   0  0  0  0  0  0  0  0  0  0  0  0
    0.2346    0.7019    0.0202 H   0  0  0  0  0  0  0  0  0  0  0  0
    1.5740   -0.0663    0.8738 H   0  0  0  0  0  0  0  0  0  0  0  0
    0.0949   -0.9899    0.5147 H   0  0  0  0  0  0  0  0  0  0  0  0
    0.6635    0.9267   -2.3533 H   0  0  0  0  0  0  0  0  0  0  0  0
    1.7905    0.1918   -4.4168 H   0  0  0  0  0  0  0  0  0  0  0  0
    3.2527   -1.7803   -4.3917 H   0  0  0  0  0  0  0  0  0  0  0  0
    5.7858   -7.3606    1.0492 H   0  0  0  0  0  0  0  0  0  0  0  0
    6.2571   -7.2385   -0.6347 H   0  0  0  0  0  0  0  0  0  0  0  0
    4.5488   -8.8544   -2.4780 H   0  0  0  0  0  0  0  0  0  0  0  0
    0.7892  -10.6130   -1.1951 H   0  0  0  0  0  0  0  0  0  0  0  0
   -0.9910  -12.1180   -0.4199 H   0  0  0  0  0  0  0  0  0  0  0  0
   -0.8640  -13.1338    1.8419 H   0  0  0  0  0  0  0  0  0  0  0  0
    1.0558  -12.6434    3.3081 H   0  0  0  0  0  0  0  0  0  0  0  0
    2.9709   -4.4375    0.7184 H   0  0  0  0  0  0  0  0  0  0  0  0
  1  2  1  0  0  0  0
  1 32  1  0  0  0  0
  1 33  1  0  0  0  0
  1 34  1  0  0  0  0
  2  3  2  0  0  0  0
  2 31  1  0  0  0  0
  3  4  1  0  0  0  0
  3 35  1  0  0  0  0
  4  5  2  0  0  0  0
  4 36  1  0  0  0  0
  5  6  1  0  0  0  0
  5 37  1  0  0  0  0
  6  7  1  0  0  0  0
  6 31  1  0  0  0  0
  7  8  2  0  0  0  0
  7  9  1  0  0  0  0
  9 10  1  0  0  0  0
  9 29  2  0  0  0  0
 10 11  2  0  0  0  0
 10 12  1  0  0  0  0
 12 13  1  0  0  0  0
 13 14  1  0  0  0  0
 13 38  1  0  0  0  0
 13 39  1  0  0  0  0
 14 15  2  0  0  0  0
 14 28  1  0  0  0  0
 15 16  1  0  0  0  0
 15 40  1  0  0  0  0
 16 17  1  0  0  0  0
 17 18  1  0  0  0  0
 17 28  2  0  0  0  0
 18 19  2  0  0  0  0
 18 23  1  0  0  0  0
 19 20  1  0  0  0  0
 19 41  1  0  0  0  0
 20 21  2  0  0  0  0
 20 42  1  0  0  0  0
 21 22  1  0  0  0  0
 21 43  1  0  0  0  0
 22 23  2  0  0  0  0
 22 44  1  0  0  0  0
 23 24  1  0  0  0  0
 24 25  1  0  0  0  0
 24 26  1  0  0  0  0
 24 27  1  0  0  0  0
 29 30  1  0  0  0  0
 29 45  1  0  0  0  0
 30 31  2  0  0  0  0
M  END
$$$$
