
 OpenBabel01122422363D

 42 45  0  0  0  0  0  0  0  0999 V2000
    0.9868    0.3801    0.6126 O   0  0  0  0  0  0  0  0  0  0  0  0
    2.1782    0.1348    0.4238 C   0  0  0  0  0  0  0  0  0  0  0  0
    2.8833   -0.7293    1.2286 N   0  0  0  0  0  0  0  0  0  0  0  0
    2.2139   -1.4808    2.2794 C   0  0  0  0  0  0  0  0  0  0  0  0
    2.2272   -0.7503    3.5917 C   0  0  0  0  0  0  0  0  0  0  0  0
    1.2262    0.1965    3.9382 C   0  0  0  0  0  0  0  0  0  0  0  0
    1.2179    0.9451    5.1475 C   0  0  0  0  0  0  0  0  0  0  0  0
    2.2124    0.8203    6.1314 C   0  0  0  0  0  0  0  0  0  0  0  0
    3.2061   -0.1278    5.8317 C   0  0  0  0  0  0  0  0  0  0  0  0
    4.2677   -0.4890    6.5612 N   0  0  0  0  0  0  0  0  0  0  0  0
    4.9207   -1.4598    5.8212 O   0  0  0  0  0  0  0  0  0  0  0  0
    4.2843   -1.7067    4.6166 N   0  0  0  0  0  0  0  0  0  0  0  0
    3.2156   -0.8988    4.5909 C   0  0  0  0  0  0  0  0  0  0  0  0
    2.8812    0.8919   -0.6577 C   0  0  0  0  0  0  0  0  0  0  0  0
    2.3819    2.2045   -0.8241 C   0  0  0  0  0  0  0  0  0  0  0  0
    2.8627    3.0368   -1.8257 C   0  0  0  0  0  0  0  0  0  0  0  0
    2.3715    4.2761   -1.9479 F   0  0  0  0  0  0  0  0  0  0  0  0
    3.8329    2.5800   -2.6960 C   0  0  0  0  0  0  0  0  0  0  0  0
    4.2855    3.3671   -3.6799 F   0  0  0  0  0  0  0  0  0  0  0  0
    4.3461    1.2953   -2.5606 C   0  0  0  0  0  0  0  0  0  0  0  0
    3.9066    0.4472   -1.5173 C   0  0  0  0  0  0  0  0  0  0  0  0
    4.5166   -0.9086   -1.4569 C   0  0  0  0  0  0  0  0  0  0  0  0
    3.8373   -1.8645   -1.1011 O   0  0  0  0  0  0  0  0  0  0  0  0
    5.9439   -1.1357   -1.8294 C   0  0  0  0  0  0  0  0  0  0  0  0
    6.2950   -2.3265   -2.4768 C   0  0  0  0  0  0  0  0  0  0  0  0
    7.6274   -2.5709   -2.8208 C   0  0  0  0  0  0  0  0  0  0  0  0
    8.6140   -1.6300   -2.5202 C   0  0  0  0  0  0  0  0  0  0  0  0
    8.2682   -0.4432   -1.8742 C   0  0  0  0  0  0  0  0  0  0  0  0
    6.9395   -0.1978   -1.5202 C   0  0  0  0  0  0  0  0  0  0  0  0
    3.7753   -1.0928    0.9146 H   0  0  0  0  0  0  0  0  0  0  0  0
    2.7249   -2.4450    2.3765 H   0  0  0  0  0  0  0  0  0  0  0  0
    1.1801   -1.6982    1.9839 H   0  0  0  0  0  0  0  0  0  0  0  0
    0.4097    0.3699    3.2314 H   0  0  0  0  0  0  0  0  0  0  0  0
    0.4041    1.6523    5.3142 H   0  0  0  0  0  0  0  0  0  0  0  0
    2.2149    1.4005    7.0445 H   0  0  0  0  0  0  0  0  0  0  0  0
    1.5982    2.5868   -0.1722 H   0  0  0  0  0  0  0  0  0  0  0  0
    5.0802    0.9720   -3.2955 H   0  0  0  0  0  0  0  0  0  0  0  0
    5.5352   -3.0681   -2.7177 H   0  0  0  0  0  0  0  0  0  0  0  0
    7.9003   -3.4987   -3.3190 H   0  0  0  0  0  0  0  0  0  0  0  0
    9.6504   -1.8267   -2.7791 H   0  0  0  0  0  0  0  0  0  0  0  0
    9.0389    0.2871   -1.6376 H   0  0  0  0  0  0  0  0  0  0  0  0
    6.7044    0.7248   -0.9970 H   0  0  0  0  0  0  0  0  0  0  0  0
  1  2  2  0  0  0  0
  2  3  1  0  0  0  0
  2 14  1  0  0  0  0
  3  4  1  0  0  0  0
  3 30  1  0  0  0  0
  4  5  1  0  0  0  0
  4 31  1  0  0  0  0
  4 32  1  0  0  0  0
  5  6  2  0  0  0  0
  5 13  1  0  0  0  0
  6  7  1  0  0  0  0
  6 33  1  0  0  0  0
  7  8  2  0  0  0  0
  7 34  1  0  0  0  0
  8  9  1  0  0  0  0
  8 35  1  0  0  0  0
  9 10  2  0  0  0  0
  9 13  1  0  0  0  0
 10 11  1  0  0  0  0
 11 12  1  0  0  0  0
 12 13  2  0  0  0  0
 14 15  2  0  0  0  0
 14 21  1  0  0  0  0
 15 16  1  0  0  0  0
 15 36  1  0  0  0  0
 16 17  1  0  0  0  0
 16 18  2  0  0  0  0
 18 19  1  0  0  0  0
 18 20  1  0  0  0  0
 20 21  2  0  0  0  0
 20 37  1  0  0  0  0
 21 22  1  0  0  0  0
 22 23  2  0  0  0  0
 22 24  1  0  0  0  0
 24 25  2  0  0  0  0
 24 29  1  0  0  0  0
 25 26  1  0  0  0  0
 25 38  1  0  0  0  0
 26 27  2  0  0  0  0
 26 39  1  0  0  0  0
 27 28  1  0  0  0  0
 27 40  1  0  0  0  0
 28 29  2  0  0  0  0
 28 41  1  0  0  0  0
 29 42  1  0  0  0  0
M  END
$$$$
