
 OpenBabel01122422363D

 47 50  0  0  0  0  0  0  0  0999 V2000
    2.7924    2.4969   -0.7049 O   0  0  0  0  0  0  0  0  0  0  0  0
    3.1224    1.3698   -0.3500 C   0  0  0  0  0  0  0  0  0  0  0  0
    2.8864    0.2487   -1.1107 N   0  0  0  0  0  0  0  0  0  0  0  0
    2.2363    0.3081   -2.4019 C   0  0  0  0  0  0  0  0  0  0  0  0
    3.1953    0.5699   -3.5415 C   0  0  0  0  0  0  0  0  0  0  0  0
    3.4682    1.8793   -3.9316 C   0  0  0  0  0  0  0  0  0  0  0  0
    4.3003    2.1031   -5.0267 C   0  0  0  0  0  0  0  0  0  0  0  0
    4.8994    1.0228   -5.6676 C   0  0  0  0  0  0  0  0  0  0  0  0
    5.7455    1.1105   -6.7462 O   0  0  0  0  0  0  0  0  0  0  0  0
    6.5676    2.2074   -6.8854 C   0  0  0  0  0  0  0  0  0  0  0  0
    7.1592    2.8838   -5.8145 C   0  0  0  0  0  0  0  0  0  0  0  0
    7.9459    4.0126   -6.0467 C   0  0  0  0  0  0  0  0  0  0  0  0
    8.1973    4.4309   -7.3520 C   0  0  0  0  0  0  0  0  0  0  0  0
    7.6699    3.7152   -8.4265 C   0  0  0  0  0  0  0  0  0  0  0  0
    6.8552    2.6047   -8.1936 C   0  0  0  0  0  0  0  0  0  0  0  0
    4.5698   -0.2489   -5.2178 C   0  0  0  0  0  0  0  0  0  0  0  0
    3.7423   -0.5032   -4.1702 N   0  0  0  0  0  0  0  0  0  0  0  0
    3.7746    1.1251    0.9235 C   0  0  0  0  0  0  0  0  0  0  0  0
    4.2931   -0.0518    1.4267 C   0  0  0  0  0  0  0  0  0  0  0  0
    4.7952    0.2110    2.6849 N   0  0  0  0  0  0  0  0  0  0  0  0
    5.4271   -0.7035    3.5739 C   0  0  0  0  0  0  0  0  0  0  0  0
    5.7817   -0.2829    4.8649 C   0  0  0  0  0  0  0  0  0  0  0  0
    6.3821   -1.1873    5.7398 C   0  0  0  0  0  0  0  0  0  0  0  0
    6.7183   -0.8289    7.0093 O   0  0  0  0  0  0  0  0  0  0  0  0
    6.6505   -2.4944    5.3461 C   0  0  0  0  0  0  0  0  0  0  0  0
    6.3063   -2.9123    4.0648 C   0  0  0  0  0  0  0  0  0  0  0  0
    5.6927   -2.0255    3.1794 C   0  0  0  0  0  0  0  0  0  0  0  0
    4.6095    1.5142    3.0216 N   0  0  0  0  0  0  0  0  0  0  0  0
    4.0190    2.0553    1.9558 C   0  0  0  0  0  0  0  0  0  0  0  0
    3.2014   -0.6564   -0.7999 H   0  0  0  0  0  0  0  0  0  0  0  0
    1.4495    1.0706   -2.3856 H   0  0  0  0  0  0  0  0  0  0  0  0
    1.7492   -0.6609   -2.5580 H   0  0  0  0  0  0  0  0  0  0  0  0
    3.0311    2.7195   -3.3990 H   0  0  0  0  0  0  0  0  0  0  0  0
    4.4722    3.1238   -5.3555 H   0  0  0  0  0  0  0  0  0  0  0  0
    7.0029    2.5562   -4.7907 H   0  0  0  0  0  0  0  0  0  0  0  0
    8.3622    4.5629   -5.2070 H   0  0  0  0  0  0  0  0  0  0  0  0
    8.8130    5.3087   -7.5309 H   0  0  0  0  0  0  0  0  0  0  0  0
    7.8897    4.0256   -9.4448 H   0  0  0  0  0  0  0  0  0  0  0  0
    6.4419    2.0542   -9.0348 H   0  0  0  0  0  0  0  0  0  0  0  0
    4.9742   -1.1302   -5.7080 H   0  0  0  0  0  0  0  0  0  0  0  0
    4.3416   -1.0395    1.0000 H   0  0  0  0  0  0  0  0  0  0  0  0
    5.5820    0.7365    5.1862 H   0  0  0  0  0  0  0  0  0  0  0  0
    6.4076    0.0778    7.1670 H   0  0  0  0  0  0  0  0  0  0  0  0
    7.1239   -3.1817    6.0403 H   0  0  0  0  0  0  0  0  0  0  0  0
    6.5176   -3.9339    3.7542 H   0  0  0  0  0  0  0  0  0  0  0  0
    5.4483   -2.3969    2.1904 H   0  0  0  0  0  0  0  0  0  0  0  0
    3.7698    3.1111    1.9699 H   0  0  0  0  0  0  0  0  0  0  0  0
  1  2  2  0  0  0  0
  2  3  1  0  0  0  0
  2 18  1  0  0  0  0
  3  4  1  0  0  0  0
  3 30  1  0  0  0  0
  4  5  1  0  0  0  0
  4 31  1  0  0  0  0
  4 32  1  0  0  0  0
  5  6  2  0  0  0  0
  5 17  1  0  0  0  0
  6  7  1  0  0  0  0
  6 33  1  0  0  0  0
  7  8  2  0  0  0  0
  7 34  1  0  0  0  0
  8  9  1  0  0  0  0
  8 16  1  0  0  0  0
  9 10  1  0  0  0  0
 10 11  2  0  0  0  0
 10 15  1  0  0  0  0
 11 12  1  0  0  0  0
 11 35  1  0  0  0  0
 12 13  2  0  0  0  0
 12 36  1  0  0  0  0
 13 14  1  0  0  0  0
 13 37  1  0  0  0  0
 14 15  2  0  0  0  0
 14 38  1  0  0  0  0
 15 39  1  0  0  0  0
 16 17  2  0  0  0  0
 16 40  1  0  0  0  0
 18 19  2  0  0  0  0
 18 29  1  0  0  0  0
 19 20  1  0  0  0  0
 19 41  1  0  0  0  0
 20 21  1  0  0  0  0
 20 28  1  0  0  0  0
 21 22  2  0  0  0  0
 21 27  1  0  0  0  0
 22 23  1  0  0  0  0
 22 42  1  0  0  0  0
 23 24  1  0  0  0  0
 23 25  2  0  0  0  0
 24 43  1  0  0  0  0
 25 26  1  0  0  0  0
 25 44  1  0  0  0  0
 26 27  2  0  0  0  0
 26 45  1  0  0  0  0
 27 46  1  0  0  0  0
 28 29  2  0  0  0  0
 29 47  1  0  0  0  0
M  END
$$$$
