
 OpenBabel01122422363D

 44 47  0  0  0  0  0  0  0  0999 V2000
    0.8844   -0.2518   -0.2261 O   0  0  0  0  0  0  0  0  0  0  0  0
    2.0760    0.0266   -0.1280 C   0  0  0  0  0  0  0  0  0  0  0  0
    2.7057    0.4191    1.0431 N   0  0  0  0  0  0  0  0  0  0  0  0
    2.0807    0.6169    2.2896 C   0  0  0  0  0  0  0  0  0  0  0  0
    0.7928    0.1734    2.5933 C   0  0  0  0  0  0  0  0  0  0  0  0
    0.2293    0.4500    3.8371 C   0  0  0  0  0  0  0  0  0  0  0  0
    0.9881    1.1516    4.7543 C   0  0  0  0  0  0  0  0  0  0  0  0
    0.4068    1.3855    5.9939 O   0  0  0  0  0  0  0  0  0  0  0  0
    1.2502    1.4265    7.0808 C   0  0  0  0  0  0  0  0  0  0  0  0
    0.9503    2.3478    8.0842 C   0  0  0  0  0  0  0  0  0  0  0  0
    1.7790    2.4479    9.2031 C   0  0  0  0  0  0  0  0  0  0  0  0
    2.8982    1.6220    9.3219 C   0  0  0  0  0  0  0  0  0  0  0  0
    3.1741    0.6736    8.3401 C   0  0  0  0  0  0  0  0  0  0  0  0
    2.3369    0.5602    7.2336 C   0  0  0  0  0  0  0  0  0  0  0  0
    2.2383    1.6052    4.4999 N   0  0  0  0  0  0  0  0  0  0  0  0
    2.7588    1.3112    3.2871 C   0  0  0  0  0  0  0  0  0  0  0  0
    2.9692    0.0329   -1.2943 C   0  0  0  0  0  0  0  0  0  0  0  0
    4.2943    0.2864   -1.2031 N   0  0  0  0  0  0  0  0  0  0  0  0
    4.7421    0.2617   -2.4955 N   0  0  0  0  0  0  0  0  0  0  0  0
    6.1015    0.5445   -2.8133 C   0  0  0  0  0  0  0  0  0  0  0  0
    7.0364    0.7237   -1.7834 C   0  0  0  0  0  0  0  0  0  0  0  0
    8.3679    1.0194   -2.0878 C   0  0  0  0  0  0  0  0  0  0  0  0
    8.7730    1.1449   -3.4154 C   0  0  0  0  0  0  0  0  0  0  0  0
    7.8511    0.9641   -4.4437 C   0  0  0  0  0  0  0  0  0  0  0  0
    6.5196    0.6619   -4.1482 C   0  0  0  0  0  0  0  0  0  0  0  0
    3.7316   -0.0323   -3.3824 C   0  0  0  0  0  0  0  0  0  0  0  0
    2.5989   -0.1816   -2.6376 C   0  0  0  0  0  0  0  0  0  0  0  0
    1.3865   -0.4535   -3.1405 O   0  0  0  0  0  0  0  0  0  0  0  0
    3.6778    0.6922    0.9251 H   0  0  0  0  0  0  0  0  0  0  0  0
    0.2029   -0.4065    1.8917 H   0  0  0  0  0  0  0  0  0  0  0  0
   -0.7693    0.1074    4.0825 H   0  0  0  0  0  0  0  0  0  0  0  0
    0.0850    2.9971    7.9873 H   0  0  0  0  0  0  0  0  0  0  0  0
    1.5588    3.1776    9.9772 H   0  0  0  0  0  0  0  0  0  0  0  0
    3.5567    1.7167   10.1806 H   0  0  0  0  0  0  0  0  0  0  0  0
    4.0438    0.0283    8.4251 H   0  0  0  0  0  0  0  0  0  0  0  0
    2.5612   -0.1861    6.4747 H   0  0  0  0  0  0  0  0  0  0  0  0
    3.7681    1.6837    3.1370 H   0  0  0  0  0  0  0  0  0  0  0  0
    6.7479    0.6293   -0.7386 H   0  0  0  0  0  0  0  0  0  0  0  0
    9.0903    1.1550   -1.2868 H   0  0  0  0  0  0  0  0  0  0  0  0
    9.8067    1.3847   -3.6500 H   0  0  0  0  0  0  0  0  0  0  0  0
    8.1650    1.0719   -5.4792 H   0  0  0  0  0  0  0  0  0  0  0  0
    5.8377    0.5457   -4.9846 H   0  0  0  0  0  0  0  0  0  0  0  0
    3.8927   -0.1112   -4.4448 H   0  0  0  0  0  0  0  0  0  0  0  0
    1.4142   -0.5376   -4.1074 H   0  0  0  0  0  0  0  0  0  0  0  0
  1  2  2  0  0  0  0
  2  3  1  0  0  0  0
  2 17  1  0  0  0  0
  3  4  1  0  0  0  0
  3 29  1  0  0  0  0
  4  5  2  0  0  0  0
  4 16  1  0  0  0  0
  5  6  1  0  0  0  0
  5 30  1  0  0  0  0
  6  7  2  0  0  0  0
  6 31  1  0  0  0  0
  7  8  1  0  0  0  0
  7 15  1  0  0  0  0
  8  9  1  0  0  0  0
  9 10  2  0  0  0  0
  9 14  1  0  0  0  0
 10 11  1  0  0  0  0
 10 32  1  0  0  0  0
 11 12  2  0  0  0  0
 11 33  1  0  0  0  0
 12 13  1  0  0  0  0
 12 34  1  0  0  0  0
 13 14  2  0  0  0  0
 13 35  1  0  0  0  0
 14 36  1  0  0  0  0
 15 16  2  0  0  0  0
 16 37  1  0  0  0  0
 17 18  2  0  0  0  0
 17 27  1  0  0  0  0
 18 19  1  0  0  0  0
 19 20  1  0  0  0  0
 19 26  1  0  0  0  0
 20 21  2  0  0  0  0
 20 25  1  0  0  0  0
 21 22  1  0  0  0  0
 21 38  1  0  0  0  0
 22 23  2  0  0  0  0
 22 39  1  0  0  0  0
 23 24  1  0  0  0  0
 23 40  1  0  0  0  0
 24 25  2  0  0  0  0
 24 41  1  0  0  0  0
 25 42  1  0  0  0  0
 26 27  2  0  0  0  0
 26 43  1  0  0  0  0
 27 28  1  0  0  0  0
 28 44  1  0  0  0  0
M  END
$$$$
