
 OpenBabel01122422363D

 46 49  0  0  0  0  0  0  0  0999 V2000
    2.0607   -1.6441   -1.0052 O   0  0  0  0  0  0  0  0  0  0  0  0
    2.8332   -0.7886   -0.5869 C   0  0  0  0  0  0  0  0  0  0  0  0
    2.9990    0.4553   -1.1587 N   0  0  0  0  0  0  0  0  0  0  0  0
    2.3056    0.8370   -2.3678 C   0  0  0  0  0  0  0  0  0  0  0  0
    3.1253    0.5889   -3.6070 C   0  0  0  0  0  0  0  0  0  0  0  0
    3.1064   -0.7081   -4.1639 C   0  0  0  0  0  0  0  0  0  0  0  0
    3.7655   -0.9959   -5.3592 C   0  0  0  0  0  0  0  0  0  0  0  0
    4.4113    0.0185   -6.0476 C   0  0  0  0  0  0  0  0  0  0  0  0
    4.4421    1.2988   -5.5147 C   0  0  0  0  0  0  0  0  0  0  0  0
    3.8844    1.5840   -4.2513 C   0  0  0  0  0  0  0  0  0  0  0  0
    4.0377    2.8244   -3.6508 O   0  0  0  0  0  0  0  0  0  0  0  0
    5.2084    3.5219   -3.9678 C   0  0  0  0  0  0  0  0  0  0  0  0
    5.0958    4.8769   -4.2393 C   0  0  0  0  0  0  0  0  0  0  0  0
    6.2010    5.5300   -4.7859 C   0  0  0  0  0  0  0  0  0  0  0  0
    7.3685    4.8158   -5.0358 C   0  0  0  0  0  0  0  0  0  0  0  0
    7.4094    3.4821   -4.6676 C   0  0  0  0  0  0  0  0  0  0  0  0
    6.3675    2.8306   -4.1090 N   0  0  0  0  0  0  0  0  0  0  0  0
    3.6430   -1.0529    0.6356 C   0  0  0  0  0  0  0  0  0  0  0  0
    3.6453   -0.0580    1.6281 C   0  0  0  0  0  0  0  0  0  0  0  0
    4.2019   -0.3199    2.8740 C   0  0  0  0  0  0  0  0  0  0  0  0
    4.2062    0.6427    3.8050 F   0  0  0  0  0  0  0  0  0  0  0  0
    4.7245   -1.5685    3.1786 C   0  0  0  0  0  0  0  0  0  0  0  0
    4.7206   -2.5718    2.2060 C   0  0  0  0  0  0  0  0  0  0  0  0
    4.2166   -2.3129    0.9138 C   0  0  0  0  0  0  0  0  0  0  0  0
    4.3514   -3.3244   -0.0695 N   0  0  0  0  0  0  0  0  0  0  0  0
    4.5535   -3.1714   -1.4255 C   0  0  0  0  0  0  0  0  0  0  0  0
    4.5401   -4.4281   -1.9792 C   0  0  0  0  0  0  0  0  0  0  0  0
    4.4350   -5.2908   -0.8799 C   0  0  0  0  0  0  0  0  0  0  0  0
    4.4237   -4.6375    0.2839 N   0  0  0  0  0  0  0  0  0  0  0  0
    3.6965    1.0975   -0.8073 H   0  0  0  0  0  0  0  0  0  0  0  0
    2.0273    1.8916   -2.2800 H   0  0  0  0  0  0  0  0  0  0  0  0
    1.3619    0.2785   -2.4421 H   0  0  0  0  0  0  0  0  0  0  0  0
    2.5649   -1.5062   -3.6591 H   0  0  0  0  0  0  0  0  0  0  0  0
    3.7589   -2.0050   -5.7563 H   0  0  0  0  0  0  0  0  0  0  0  0
    4.9086   -0.1811   -6.9934 H   0  0  0  0  0  0  0  0  0  0  0  0
    4.9548    2.0745   -6.0784 H   0  0  0  0  0  0  0  0  0  0  0  0
    4.1611    5.4009   -4.0842 H   0  0  0  0  0  0  0  0  0  0  0  0
    6.1423    6.5831   -5.0508 H   0  0  0  0  0  0  0  0  0  0  0  0
    8.2236    5.2813   -5.5134 H   0  0  0  0  0  0  0  0  0  0  0  0
    8.2915    2.8745   -4.8468 H   0  0  0  0  0  0  0  0  0  0  0  0
    3.1723    0.9061    1.4682 H   0  0  0  0  0  0  0  0  0  0  0  0
    5.1334   -1.7565    4.1660 H   0  0  0  0  0  0  0  0  0  0  0  0
    5.1460   -3.5432    2.4519 H   0  0  0  0  0  0  0  0  0  0  0  0
    4.6733   -2.1986   -1.8777 H   0  0  0  0  0  0  0  0  0  0  0  0
    4.6106   -4.6772   -3.0275 H   0  0  0  0  0  0  0  0  0  0  0  0
    4.3909   -6.3725   -0.8760 H   0  0  0  0  0  0  0  0  0  0  0  0
  1  2  2  0  0  0  0
  2  3  1  0  0  0  0
  2 18  1  0  0  0  0
  3  4  1  0  0  0  0
  3 30  1  0  0  0  0
  4  5  1  0  0  0  0
  4 31  1  0  0  0  0
  4 32  1  0  0  0  0
  5  6  2  0  0  0  0
  5 10  1  0  0  0  0
  6  7  1  0  0  0  0
  6 33  1  0  0  0  0
  7  8  2  0  0  0  0
  7 34  1  0  0  0  0
  8  9  1  0  0  0  0
  8 35  1  0  0  0  0
  9 10  2  0  0  0  0
  9 36  1  0  0  0  0
 10 11  1  0  0  0  0
 11 12  1  0  0  0  0
 12 13  2  0  0  0  0
 12 17  1  0  0  0  0
 13 14  1  0  0  0  0
 13 37  1  0  0  0  0
 14 15  2  0  0  0  0
 14 38  1  0  0  0  0
 15 16  1  0  0  0  0
 15 39  1  0  0  0  0
 16 17  2  0  0  0  0
 16 40  1  0  0  0  0
 18 19  2  0  0  0  0
 18 24  1  0  0  0  0
 19 20  1  0  0  0  0
 19 41  1  0  0  0  0
 20 21  1  0  0  0  0
 20 22  2  0  0  0  0
 22 23  1  0  0  0  0
 22 42  1  0  0  0  0
 23 24  2  0  0  0  0
 23 43  1  0  0  0  0
 24 25  1  0  0  0  0
 25 26  1  0  0  0  0
 25 29  1  0  0  0  0
 26 27  2  0  0  0  0
 26 44  1  0  0  0  0
 27 28  1  0  0  0  0
 27 45  1  0  0  0  0
 28 29  2  0  0  0  0
 28 46  1  0  0  0  0
M  END
$$$$
