
 OpenBabel01122422363D

 41 44  0  0  0  0  0  0  0  0999 V2000
    0.9730   -0.3995   -0.0483 O   0  0  0  0  0  0  0  0  0  0  0  0
    2.1609   -0.0960   -0.0344 C   0  0  0  0  0  0  0  0  0  0  0  0
    2.7617    0.8839   -0.8126 N   0  0  0  0  0  0  0  0  0  0  0  0
    2.0844    1.7220   -1.6864 C   0  0  0  0  0  0  0  0  0  0  0  0
    0.7966    2.0578   -1.4952 C   0  0  0  0  0  0  0  0  0  0  0  0
    0.0638    2.9625   -2.4036 C   0  0  0  0  0  0  0  0  0  0  0  0
   -1.0972    3.2845   -2.1772 O   0  0  0  0  0  0  0  0  0  0  0  0
    0.7471    3.4260   -3.4864 N   0  0  0  0  0  0  0  0  0  0  0  0
    2.0921    3.1312   -3.7328 C   0  0  0  0  0  0  0  0  0  0  0  0
    2.7079    3.6860   -4.8509 C   0  0  0  0  0  0  0  0  0  0  0  0
    4.0399    3.3893   -5.0628 C   0  0  0  0  0  0  0  0  0  0  0  0
    4.7547    2.5657   -4.2695 N   0  0  0  0  0  0  0  0  0  0  0  0
    4.1125    2.0277   -3.2020 C   0  0  0  0  0  0  0  0  0  0  0  0
    2.7918    2.2925   -2.8550 C   0  0  0  0  0  0  0  0  0  0  0  0
    3.0605   -0.8734    0.8440 C   0  0  0  0  0  0  0  0  0  0  0  0
    2.7522   -2.2165    1.0820 C   0  0  0  0  0  0  0  0  0  0  0  0
    3.4931   -2.9459    2.0069 C   0  0  0  0  0  0  0  0  0  0  0  0
    4.5370   -2.3514    2.7432 C   0  0  0  0  0  0  0  0  0  0  0  0
    5.2264   -3.1034    3.8138 C   0  0  0  0  0  0  0  0  0  0  0  0
    6.5699   -2.8625    4.1493 C   0  0  0  0  0  0  0  0  0  0  0  0
    7.1998   -3.5751    5.1704 C   0  0  0  0  0  0  0  0  0  0  0  0
    6.5055   -4.5500    5.8816 C   0  0  0  0  0  0  0  0  0  0  0  0
    5.1692   -4.8033    5.5756 C   0  0  0  0  0  0  0  0  0  0  0  0
    4.5430   -4.0831    4.5593 C   0  0  0  0  0  0  0  0  0  0  0  0
    4.8410   -1.0083    2.4481 C   0  0  0  0  0  0  0  0  0  0  0  0
    5.8061   -0.3577    3.1111 F   0  0  0  0  0  0  0  0  0  0  0  0
    4.1243   -0.2731    1.5072 C   0  0  0  0  0  0  0  0  0  0  0  0
    3.7714    0.8841   -0.8436 H   0  0  0  0  0  0  0  0  0  0  0  0
    0.2116    1.7193   -0.6487 H   0  0  0  0  0  0  0  0  0  0  0  0
    0.2233    4.0311   -4.1047 H   0  0  0  0  0  0  0  0  0  0  0  0
    2.1764    4.3358   -5.5359 H   0  0  0  0  0  0  0  0  0  0  0  0
    4.5835    3.8168   -5.9007 H   0  0  0  0  0  0  0  0  0  0  0  0
    4.7364    1.3449   -2.6351 H   0  0  0  0  0  0  0  0  0  0  0  0
    1.9125   -2.6882    0.5713 H   0  0  0  0  0  0  0  0  0  0  0  0
    3.2171   -3.9879    2.1712 H   0  0  0  0  0  0  0  0  0  0  0  0
    7.1509   -2.1132    3.6190 H   0  0  0  0  0  0  0  0  0  0  0  0
    8.2386   -3.3653    5.4123 H   0  0  0  0  0  0  0  0  0  0  0  0
    6.9941   -5.0989    6.6742 H   0  0  0  0  0  0  0  0  0  0  0  0
    4.6154   -5.5487    6.1311 H   0  0  0  0  0  0  0  0  0  0  0  0
    3.4926   -4.2961    4.3674 H   0  0  0  0  0  0  0  0  0  0  0  0
    4.3720    0.7748    1.3757 H   0  0  0  0  0  0  0  0  0  0  0  0
  1  2  2  0  0  0  0
  2  3  1  0  0  0  0
  2 15  1  0  0  0  0
  3  4  1  0  0  0  0
  3 28  1  0  0  0  0
  4  5  2  0  0  0  0
  4 14  1  0  0  0  0
  5  6  1  0  0  0  0
  5 29  1  0  0  0  0
  6  7  2  0  0  0  0
  6  8  1  0  0  0  0
  8  9  1  0  0  0  0
  8 30  1  0  0  0  0
  9 10  2  0  0  0  0
  9 14  1  0  0  0  0
 10 11  1  0  0  0  0
 10 31  1  0  0  0  0
 11 12  2  0  0  0  0
 11 32  1  0  0  0  0
 12 13  1  0  0  0  0
 13 14  2  0  0  0  0
 13 33  1  0  0  0  0
 15 16  2  0  0  0  0
 15 27  1  0  0  0  0
 16 17  1  0  0  0  0
 16 34  1  0  0  0  0
 17 18  2  0  0  0  0
 17 35  1  0  0  0  0
 18 19  1  0  0  0  0
 18 25  1  0  0  0  0
 19 20  2  0  0  0  0
 19 24  1  0  0  0  0
 20 21  1  0  0  0  0
 20 36  1  0  0  0  0
 21 22  2  0  0  0  0
 21 37  1  0  0  0  0
 22 23  1  0  0  0  0
 22 38  1  0  0  0  0
 23 24  2  0  0  0  0
 23 39  1  0  0  0  0
 24 40  1  0  0  0  0
 25 26  1  0  0  0  0
 25 27  2  0  0  0  0
 27 41  1  0  0  0  0
M  END
$$$$
