
 OpenBabel01122422363D

 50 53  0  0  0  0  0  0  0  0999 V2000
    2.9689    1.3489    2.3065 C   0  0  0  0  0  0  0  0  0  0  0  0
    3.4103    0.6995    1.0259 C   0  0  0  0  0  0  0  0  0  0  0  0
    3.1861    1.2887   -0.1081 N   0  0  0  0  0  0  0  0  0  0  0  0
    3.5528    0.6194   -1.2853 C   0  0  0  0  0  0  0  0  0  0  0  0
    3.2382    1.2433   -2.4977 C   0  0  0  0  0  0  0  0  0  0  0  0
    3.5030    0.6168   -3.7134 C   0  0  0  0  0  0  0  0  0  0  0  0
    4.0991   -0.6391   -3.7244 C   0  0  0  0  0  0  0  0  0  0  0  0
    4.4422   -1.2630   -2.5215 C   0  0  0  0  0  0  0  0  0  0  0  0
    4.1763   -0.6433   -1.2909 C   0  0  0  0  0  0  0  0  0  0  0  0
    4.4986   -1.2509   -0.0430 N   0  0  0  0  0  0  0  0  0  0  0  0
    5.1684   -2.5451    0.0350 C   0  0  0  0  0  0  0  0  0  0  0  0
    4.1827   -3.7142    0.0124 C   0  0  0  0  0  0  0  0  0  0  0  0
    4.8429   -5.0057    0.0475 N   0  0  0  0  0  0  0  0  0  0  0  0
    4.0764   -6.1558    0.0602 C   0  0  0  0  0  0  0  0  0  0  0  0
    2.8503   -6.1502    0.0659 O   0  0  0  0  0  0  0  0  0  0  0  0
    4.8213   -7.4367    0.0272 C   0  0  0  0  0  0  0  0  0  0  0  0
    6.0745   -7.5677    0.6383 C   0  0  0  0  0  0  0  0  0  0  0  0
    6.7521   -8.7819    0.5807 C   0  0  0  0  0  0  0  0  0  0  0  0
    6.1738   -9.8806   -0.0614 C   0  0  0  0  0  0  0  0  0  0  0  0
    4.8897   -9.7784   -0.6076 C   0  0  0  0  0  0  0  0  0  0  0  0
    4.2316  -10.8914   -1.1988 N   0  0  0  0  0  0  0  0  0  0  0  0
    3.3558  -10.6442   -2.2193 N   0  0  0  0  0  0  0  0  0  0  0  0
    3.0139  -11.8404   -2.6847 C   0  0  0  0  0  0  0  0  0  0  0  0
    3.5819  -12.8750   -1.9388 C   0  0  0  0  0  0  0  0  0  0  0  0
    4.3176  -12.2442   -0.9457 C   0  0  0  0  0  0  0  0  0  0  0  0
    4.9640  -12.8692    0.2174 C   0  0  0  0  0  0  0  0  0  0  0  0
    5.3851  -12.0231    1.1830 F   0  0  0  0  0  0  0  0  0  0  0  0
    4.1154  -13.7344    0.8355 F   0  0  0  0  0  0  0  0  0  0  0  0
    6.0446  -13.6029   -0.1627 F   0  0  0  0  0  0  0  0  0  0  0  0
    4.2288   -8.5422   -0.5906 C   0  0  0  0  0  0  0  0  0  0  0  0
    4.1009   -0.6491    1.1479 C   0  0  0  0  0  0  0  0  0  0  0  0
    4.2732   -1.1232    2.2646 O   0  0  0  0  0  0  0  0  0  0  0  0
    2.4956    2.3136    2.1021 H   0  0  0  0  0  0  0  0  0  0  0  0
    3.8313    1.5082    2.9587 H   0  0  0  0  0  0  0  0  0  0  0  0
    2.2442    0.7029    2.8104 H   0  0  0  0  0  0  0  0  0  0  0  0
    2.7661    2.2227   -2.4855 H   0  0  0  0  0  0  0  0  0  0  0  0
    3.2324    1.1039   -4.6466 H   0  0  0  0  0  0  0  0  0  0  0  0
    4.2911   -1.1404   -4.6701 H   0  0  0  0  0  0  0  0  0  0  0  0
    4.8961   -2.2460   -2.5871 H   0  0  0  0  0  0  0  0  0  0  0  0
    5.7482   -2.5873    0.9681 H   0  0  0  0  0  0  0  0  0  0  0  0
    5.9160   -2.6324   -0.7604 H   0  0  0  0  0  0  0  0  0  0  0  0
    3.5650   -3.6851   -0.8881 H   0  0  0  0  0  0  0  0  0  0  0  0
    3.5069   -3.6620    0.8703 H   0  0  0  0  0  0  0  0  0  0  0  0
    5.8201   -5.0801   -0.2087 H   0  0  0  0  0  0  0  0  0  0  0  0
    6.5199   -6.7358    1.1823 H   0  0  0  0  0  0  0  0  0  0  0  0
    7.7303   -8.8805    1.0465 H   0  0  0  0  0  0  0  0  0  0  0  0
    6.7585  -10.7942   -0.1297 H   0  0  0  0  0  0  0  0  0  0  0  0
    2.3434  -11.9026   -3.5332 H   0  0  0  0  0  0  0  0  0  0  0  0
    3.4313  -13.9379   -2.0531 H   0  0  0  0  0  0  0  0  0  0  0  0
    3.2323   -8.4346   -1.0270 H   0  0  0  0  0  0  0  0  0  0  0  0
  1  2  1  0  0  0  0
  1 33  1  0  0  0  0
  1 34  1  0  0  0  0
  1 35  1  0  0  0  0
  2  3  2  0  0  0  0
  2 31  1  0  0  0  0
  3  4  1  0  0  0  0
  4  5  2  0  0  0  0
  4  9  1  0  0  0  0
  5  6  1  0  0  0  0
  5 36  1  0  0  0  0
  6  7  2  0  0  0  0
  6 37  1  0  0  0  0
  7  8  1  0  0  0  0
  7 38  1  0  0  0  0
  8  9  2  0  0  0  0
  8 39  1  0  0  0  0
  9 10  1  0  0  0  0
 10 11  1  0  0  0  0
 10 31  1  0  0  0  0
 11 12  1  0  0  0  0
 11 40  1  0  0  0  0
 11 41  1  0  0  0  0
 12 13  1  0  0  0  0
 12 42  1  0  0  0  0
 12 43  1  0  0  0  0
 13 14  1  0  0  0  0
 13 44  1  0  0  0  0
 14 15  2  0  0  0  0
 14 16  1  0  0  0  0
 16 17  2  0  0  0  0
 16 30  1  0  0  0  0
 17 18  1  0  0  0  0
 17 45  1  0  0  0  0
 18 19  2  0  0  0  0
 18 46  1  0  0  0  0
 19 20  1  0  0  0  0
 19 47  1  0  0  0  0
 20 21  1  0  0  0  0
 20 30  2  0  0  0  0
 21 22  1  0  0  0  0
 21 25  1  0  0  0  0
 22 23  2  0  0  0  0
 23 24  1  0  0  0  0
 23 48  1  0  0  0  0
 24 25  2  0  0  0  0
 24 49  1  0  0  0  0
 25 26  1  0  0  0  0
 26 27  1  0  0  0  0
 26 28  1  0  0  0  0
 26 29  1  0  0  0  0
 30 50  1  0  0  0  0
 31 32  2  0  0  0  0
M  END
$$$$
