
 OpenBabel01122422363D

 55 58  0  0  0  0  0  0  0  0999 V2000
    4.8869    2.7594    0.0468 C   0  0  0  0  0  0  0  0  0  0  0  0
    4.4396    1.3766    0.1642 N   0  0  0  0  0  0  0  0  0  0  0  0
    3.0976    1.1053    0.6979 C   0  0  0  0  0  0  0  0  0  0  0  0
    2.2094    2.2279    1.2476 C   0  0  0  0  0  0  0  0  0  0  0  0
    1.0828    2.4203    0.7839 O   0  0  0  0  0  0  0  0  0  0  0  0
    2.7062    2.9333    2.3174 N   0  0  0  0  0  0  0  0  0  0  0  0
    1.8953    3.9500    2.9651 C   0  0  0  0  0  0  0  0  0  0  0  0
    0.9955    3.3989    4.0708 C   0  0  0  0  0  0  0  0  0  0  0  0
    1.3500    2.2928    4.8600 C   0  0  0  0  0  0  0  0  0  0  0  0
    0.5544    1.9080    5.9404 C   0  0  0  0  0  0  0  0  0  0  0  0
   -0.6039    2.6167    6.2471 C   0  0  0  0  0  0  0  0  0  0  0  0
   -0.9801    3.7045    5.4660 C   0  0  0  0  0  0  0  0  0  0  0  0
   -0.1886    4.0927    4.3846 C   0  0  0  0  0  0  0  0  0  0  0  0
    2.7473    5.1021    3.4777 C   0  0  0  0  0  0  0  0  0  0  0  0
    2.5715    6.3890    2.9400 C   0  0  0  0  0  0  0  0  0  0  0  0
    3.2227    7.4865    3.4985 C   0  0  0  0  0  0  0  0  0  0  0  0
    4.0652    7.3139    4.5942 C   0  0  0  0  0  0  0  0  0  0  0  0
    4.2810    6.0398    5.1133 C   0  0  0  0  0  0  0  0  0  0  0  0
    3.6342    4.9376    4.5538 C   0  0  0  0  0  0  0  0  0  0  0  0
    5.3841    0.3988   -0.1904 C   0  0  0  0  0  0  0  0  0  0  0  0
    6.5344    0.7055   -0.5017 O   0  0  0  0  0  0  0  0  0  0  0  0
    5.0651   -1.0646   -0.1831 C   0  0  0  0  0  0  0  0  0  0  0  0
    3.8402   -1.5989   -0.5738 C   0  0  0  0  0  0  0  0  0  0  0  0
    3.6659   -2.9698   -0.5135 C   0  0  0  0  0  0  0  0  0  0  0  0
    4.6346   -3.8329   -0.1572 N   0  0  0  0  0  0  0  0  0  0  0  0
    5.8554   -3.3154    0.1357 C   0  0  0  0  0  0  0  0  0  0  0  0
    6.9130   -4.2928    0.4254 C   0  0  0  0  0  0  0  0  0  0  0  0
    8.1853   -3.9418    0.6927 N   0  0  0  0  0  0  0  0  0  0  0  0
    8.8266   -5.1068    0.8735 N   0  0  0  0  0  0  0  0  0  0  0  0
    8.0243   -6.1992    0.7530 C   0  0  0  0  0  0  0  0  0  0  0  0
    6.7760   -5.7101    0.4596 C   0  0  0  0  0  0  0  0  0  0  0  0
    6.1030   -1.9474    0.1425 C   0  0  0  0  0  0  0  0  0  0  0  0
    4.0471    3.4527   -0.0206 H   0  0  0  0  0  0  0  0  0  0  0  0
    5.4932    2.8831   -0.8565 H   0  0  0  0  0  0  0  0  0  0  0  0
    5.5061    2.9972    0.9176 H   0  0  0  0  0  0  0  0  0  0  0  0
    3.1743    0.3267    1.4648 H   0  0  0  0  0  0  0  0  0  0  0  0
    2.5196    0.7085   -0.1394 H   0  0  0  0  0  0  0  0  0  0  0  0
    3.5994    2.6852    2.7174 H   0  0  0  0  0  0  0  0  0  0  0  0
    1.2242    4.3456    2.1905 H   0  0  0  0  0  0  0  0  0  0  0  0
    2.2630    1.7380    4.6613 H   0  0  0  0  0  0  0  0  0  0  0  0
    0.8485    1.0629    6.5566 H   0  0  0  0  0  0  0  0  0  0  0  0
   -1.2113    2.3273    7.1022 H   0  0  0  0  0  0  0  0  0  0  0  0
   -1.8811    4.2653    5.7042 H   0  0  0  0  0  0  0  0  0  0  0  0
   -0.4849    4.9601    3.7979 H   0  0  0  0  0  0  0  0  0  0  0  0
    1.8946    6.5471    2.1010 H   0  0  0  0  0  0  0  0  0  0  0  0
    3.0528    8.4811    3.0950 H   0  0  0  0  0  0  0  0  0  0  0  0
    4.5453    8.1747    5.0516 H   0  0  0  0  0  0  0  0  0  0  0  0
    4.9316    5.9059    5.9734 H   0  0  0  0  0  0  0  0  0  0  0  0
    3.7885    3.9587    5.0007 H   0  0  0  0  0  0  0  0  0  0  0  0
    3.0310   -0.9987   -0.9602 H   0  0  0  0  0  0  0  0  0  0  0  0
    2.7143   -3.4249   -0.7760 H   0  0  0  0  0  0  0  0  0  0  0  0
    9.8200   -5.0802    1.0781 H   0  0  0  0  0  0  0  0  0  0  0  0
    8.4023   -7.2034    0.8785 H   0  0  0  0  0  0  0  0  0  0  0  0
    5.8738   -6.2802    0.2841 H   0  0  0  0  0  0  0  0  0  0  0  0
    7.0973   -1.5731    0.3744 H   0  0  0  0  0  0  0  0  0  0  0  0
  1  2  1  0  0  0  0
  1 33  1  0  0  0  0
  1 34  1  0  0  0  0
  1 35  1  0  0  0  0
  2  3  1  0  0  0  0
  2 20  1  0  0  0  0
  3  4  1  0  0  0  0
  3 36  1  0  0  0  0
  3 37  1  0  0  0  0
  4  5  2  0  0  0  0
  4  6  1  0  0  0  0
  6  7  1  0  0  0  0
  6 38  1  0  0  0  0
  7  8  1  0  0  0  0
  7 14  1  0  0  0  0
  7 39  1  0  0  0  0
  8  9  2  0  0  0  0
  8 13  1  0  0  0  0
  9 10  1  0  0  0  0
  9 40  1  0  0  0  0
 10 11  2  0  0  0  0
 10 41  1  0  0  0  0
 11 12  1  0  0  0  0
 11 42  1  0  0  0  0
 12 13  2  0  0  0  0
 12 43  1  0  0  0  0
 13 44  1  0  0  0  0
 14 15  2  0  0  0  0
 14 19  1  0  0  0  0
 15 16  1  0  0  0  0
 15 45  1  0  0  0  0
 16 17  2  0  0  0  0
 16 46  1  0  0  0  0
 17 18  1  0  0  0  0
 17 47  1  0  0  0  0
 18 19  2  0  0  0  0
 18 48  1  0  0  0  0
 19 49  1  0  0  0  0
 20 21  2  0  0  0  0
 20 22  1  0  0  0  0
 22 23  2  0  0  0  0
 22 32  1  0  0  0  0
 23 24  1  0  0  0  0
 23 50  1  0  0  0  0
 24 25  2  0  0  0  0
 24 51  1  0  0  0  0
 25 26  1  0  0  0  0
 26 27  1  0  0  0  0
 26 32  2  0  0  0  0
 27 28  2  0  0  0  0
 27 31  1  0  0  0  0
 28 29  1  0  0  0  0
 29 30  1  0  0  0  0
 29 52  1  0  0  0  0
 30 31  2  0  0  0  0
 30 53  1  0  0  0  0
 31 54  1  0  0  0  0
 32 55  1  0  0  0  0
M  END
$$$$
