
 OpenBabel01122422363D

 47 50  0  0  0  0  0  0  0  0999 V2000
    2.1957    0.1544   -0.3616 C   0  0  0  0  0  0  0  0  0  0  0  0
    0.7729    0.0906   -0.1232 N   0  0  0  0  0  0  0  0  0  0  0  0
   -0.0041   -1.0416    0.0088 C   0  0  0  0  0  0  0  0  0  0  0  0
    0.4890   -2.4554    0.0304 C   0  0  0  0  0  0  0  0  0  0  0  0
    0.6321   -3.0833   -1.3371 C   0  0  0  0  0  0  0  0  0  0  0  0
    1.8500   -3.6583   -1.7297 C   0  0  0  0  0  0  0  0  0  0  0  0
    1.9973   -4.2105   -3.0039 C   0  0  0  0  0  0  0  0  0  0  0  0
    0.9259   -4.2091   -3.8943 C   0  0  0  0  0  0  0  0  0  0  0  0
   -0.3028   -3.6855   -3.5004 C   0  0  0  0  0  0  0  0  0  0  0  0
   -0.4521   -3.1360   -2.2263 C   0  0  0  0  0  0  0  0  0  0  0  0
   -1.2911   -0.5613    0.1377 C   0  0  0  0  0  0  0  0  0  0  0  0
   -1.3073    0.8020    0.2062 N   0  0  0  0  0  0  0  0  0  0  0  0
   -0.0509    1.1897    0.0545 C   0  0  0  0  0  0  0  0  0  0  0  0
    0.3419    2.5950    0.0927 C   0  0  0  0  0  0  0  0  0  0  0  0
    1.4613    2.9975   -0.2177 O   0  0  0  0  0  0  0  0  0  0  0  0
   -0.6599    3.4004    0.5929 N   0  0  0  0  0  0  0  0  0  0  0  0
   -0.5919    4.7651    0.6944 C   0  0  0  0  0  0  0  0  0  0  0  0
   -1.2676    5.3973    1.6528 N   0  0  0  0  0  0  0  0  0  0  0  0
   -1.0083    6.7162    1.4629 N   0  0  0  0  0  0  0  0  0  0  0  0
   -1.5501    7.6737    2.3669 C   0  0  0  0  0  0  0  0  0  0  0  0
   -1.9332    8.9673    1.9828 C   0  0  0  0  0  0  0  0  0  0  0  0
   -1.8857    9.4493    0.6367 C   0  0  0  0  0  0  0  0  0  0  0  0
   -1.8359    9.8281   -0.4542 N   0  0  0  0  0  0  0  0  0  0  0  0
   -2.5024    9.8179    2.9362 C   0  0  0  0  0  0  0  0  0  0  0  0
   -2.9237   11.0425    2.5832 F   0  0  0  0  0  0  0  0  0  0  0  0
   -2.6718    9.4237    4.2593 C   0  0  0  0  0  0  0  0  0  0  0  0
   -2.2743    8.1508    4.6498 C   0  0  0  0  0  0  0  0  0  0  0  0
   -1.7289    7.2750    3.7081 C   0  0  0  0  0  0  0  0  0  0  0  0
   -0.2084    6.9149    0.3630 C   0  0  0  0  0  0  0  0  0  0  0  0
    0.0943    5.6690   -0.1365 C   0  0  0  0  0  0  0  0  0  0  0  0
    2.5748   -0.8272   -0.6503 H   0  0  0  0  0  0  0  0  0  0  0  0
    2.6858    0.4851    0.5573 H   0  0  0  0  0  0  0  0  0  0  0  0
    2.3877    0.8518   -1.1801 H   0  0  0  0  0  0  0  0  0  0  0  0
   -0.2050   -3.0728    0.6172 H   0  0  0  0  0  0  0  0  0  0  0  0
    1.4428   -2.4977    0.5718 H   0  0  0  0  0  0  0  0  0  0  0  0
    2.6971   -3.6778   -1.0479 H   0  0  0  0  0  0  0  0  0  0  0  0
    2.9503   -4.6382   -3.3043 H   0  0  0  0  0  0  0  0  0  0  0  0
    1.0461   -4.6201   -4.8930 H   0  0  0  0  0  0  0  0  0  0  0  0
   -1.1455   -3.6980   -4.1868 H   0  0  0  0  0  0  0  0  0  0  0  0
   -1.4224   -2.7384   -1.9375 H   0  0  0  0  0  0  0  0  0  0  0  0
   -2.2046   -1.1384    0.2134 H   0  0  0  0  0  0  0  0  0  0  0  0
   -1.4336    2.9445    1.0619 H   0  0  0  0  0  0  0  0  0  0  0  0
   -3.1248   10.1091    4.9696 H   0  0  0  0  0  0  0  0  0  0  0  0
   -2.3952    7.8338    5.6834 H   0  0  0  0  0  0  0  0  0  0  0  0
   -1.4171    6.2836    4.0378 H   0  0  0  0  0  0  0  0  0  0  0  0
    0.1262    7.8906    0.0429 H   0  0  0  0  0  0  0  0  0  0  0  0
    0.6949    5.4504   -1.0089 H   0  0  0  0  0  0  0  0  0  0  0  0
  1  2  1  0  0  0  0
  1 31  1  0  0  0  0
  1 32  1  0  0  0  0
  1 33  1  0  0  0  0
  2  3  1  0  0  0  0
  2 13  1  0  0  0  0
  3  4  1  0  0  0  0
  3 11  2  0  0  0  0
  4  5  1  0  0  0  0
  4 34  1  0  0  0  0
  4 35  1  0  0  0  0
  5  6  2  0  0  0  0
  5 10  1  0  0  0  0
  6  7  1  0  0  0  0
  6 36  1  0  0  0  0
  7  8  2  0  0  0  0
  7 37  1  0  0  0  0
  8  9  1  0  0  0  0
  8 38  1  0  0  0  0
  9 10  2  0  0  0  0
  9 39  1  0  0  0  0
 10 40  1  0  0  0  0
 11 12  1  0  0  0  0
 11 41  1  0  0  0  0
 12 13  2  0  0  0  0
 13 14  1  0  0  0  0
 14 15  2  0  0  0  0
 14 16  1  0  0  0  0
 16 17  1  0  0  0  0
 16 42  1  0  0  0  0
 17 18  2  0  0  0  0
 17 30  1  0  0  0  0
 18 19  1  0  0  0  0
 19 20  1  0  0  0  0
 19 29  1  0  0  0  0
 20 21  2  0  0  0  0
 20 28  1  0  0  0  0
 21 22  1  0  0  0  0
 21 24  1  0  0  0  0
 22 23  3  0  0  0  0
 24 25  1  0  0  0  0
 24 26  2  0  0  0  0
 26 27  1  0  0  0  0
 26 43  1  0  0  0  0
 27 28  2  0  0  0  0
 27 44  1  0  0  0  0
 28 45  1  0  0  0  0
 29 30  2  0  0  0  0
 29 46  1  0  0  0  0
 30 47  1  0  0  0  0
M  END
$$$$
