
 OpenBabel01122422363D

 48 51  0  0  1  0  0  0  0  0999 V2000
    1.0398   -0.2670   -0.0336 O   0  0  0  0  0  0  0  0  0  0  0  0
    2.2518   -0.0837    0.0623 C   0  0  0  0  0  0  0  0  0  0  0  0
    2.9349   -0.4153    1.2161 N   0  0  0  0  0  0  0  0  0  0  0  0
    2.2433   -1.0516    2.3179 C   0  0  0  0  0  0  0  0  0  0  0  0
    3.1594   -1.4600    3.4564 C   0  0  0  0  0  0  0  0  0  0  0  0
    4.4847   -1.1557    3.2525 N   0  0  0  0  0  0  0  0  0  0  0  0
    5.3594   -1.4335    4.2390 C   0  0  0  0  0  0  0  0  0  0  0  0
    4.9939   -2.0178    5.4304 C   0  0  0  0  0  0  0  0  0  0  0  0
    3.6523   -2.3460    5.6173 C   0  0  0  0  0  0  0  0  0  0  0  0
    2.6750   -2.0758    4.6350 C   0  0  0  0  0  0  0  0  0  0  0  0
    1.2459   -2.4149    4.9143 C   0  0  0  0  0  0  0  0  0  0  0  0
    0.7026   -2.2566    6.2093 C   0  0  0  0  0  0  0  0  0  0  0  0
   -0.6359   -2.5620    6.4925 C   0  0  0  0  0  0  0  0  0  0  0  0
   -1.4714   -2.9928    5.4746 C   0  0  0  0  0  0  0  0  0  0  0  0
   -2.7580   -3.2529    5.7335 F   0  0  0  0  0  0  0  0  0  0  0  0
   -0.9787   -3.1731    4.1949 C   0  0  0  0  0  0  0  0  0  0  0  0
    0.3738   -2.9273    3.9338 C   0  0  0  0  0  0  0  0  0  0  0  0
    3.1083    0.5320   -1.0479 C   0  0  3  0  0  0  0  0  0  0  0  0
    2.9701   -0.1450   -2.4089 C   0  0  0  0  0  0  0  0  0  0  0  0
    1.7338   -0.2954   -3.0613 C   0  0  0  0  0  0  0  0  0  0  0  0
    1.6601   -0.8362   -4.3474 C   0  0  0  0  0  0  0  0  0  0  0  0
    2.8174   -1.2573   -4.9951 C   0  0  0  0  0  0  0  0  0  0  0  0
    4.0466   -1.1587   -4.3498 C   0  0  0  0  0  0  0  0  0  0  0  0
    4.1235   -0.6071   -3.0682 C   0  0  0  0  0  0  0  0  0  0  0  0
    2.8649    1.9789   -1.1213 N   0  0  0  0  0  0  0  0  0  0  0  0
    1.6862    2.6319   -1.3714 C   0  0  0  0  0  0  0  0  0  0  0  0
    1.9587    3.9749   -1.2949 C   0  0  0  0  0  0  0  0  0  0  0  0
    3.3231    4.0423   -0.9663 C   0  0  0  0  0  0  0  0  0  0  0  0
    3.8830    2.8358   -0.8591 N   0  0  0  0  0  0  0  0  0  0  0  0
    3.9404   -0.3217    1.3165 H   0  0  0  0  0  0  0  0  0  0  0  0
    1.7844   -1.9330    1.8733 H   0  0  0  0  0  0  0  0  0  0  0  0
    1.4743   -0.3611    2.6767 H   0  0  0  0  0  0  0  0  0  0  0  0
    6.3925   -1.1631    4.0393 H   0  0  0  0  0  0  0  0  0  0  0  0
    5.7313   -2.2177    6.2008 H   0  0  0  0  0  0  0  0  0  0  0  0
    3.3777   -2.8257    6.5552 H   0  0  0  0  0  0  0  0  0  0  0  0
    1.3159   -1.8906    7.0285 H   0  0  0  0  0  0  0  0  0  0  0  0
   -1.0300   -2.4551    7.4985 H   0  0  0  0  0  0  0  0  0  0  0  0
   -1.6401   -3.5175    3.4050 H   0  0  0  0  0  0  0  0  0  0  0  0
    0.7211   -3.1758    2.9375 H   0  0  0  0  0  0  0  0  0  0  0  0
    4.1551    0.4323   -0.7335 H   0  0  0  0  0  0  0  0  0  0  0  0
    0.8072    0.0154   -2.5827 H   0  0  0  0  0  0  0  0  0  0  0  0
    0.6970   -0.9197   -4.8447 H   0  0  0  0  0  0  0  0  0  0  0  0
    2.7606   -1.6618   -6.0025 H   0  0  0  0  0  0  0  0  0  0  0  0
    4.9499   -1.4985   -4.8497 H   0  0  0  0  0  0  0  0  0  0  0  0
    5.1008   -0.5286   -2.5949 H   0  0  0  0  0  0  0  0  0  0  0  0
    0.7642    2.1006   -1.5693 H   0  0  0  0  0  0  0  0  0  0  0  0
    1.2676    4.7927   -1.4429 H   0  0  0  0  0  0  0  0  0  0  0  0
    3.9303    4.9211   -0.7963 H   0  0  0  0  0  0  0  0  0  0  0  0
  1  2  2  0  0  0  0
  2  3  1  0  0  0  0
  2 18  1  0  0  0  0
  3  4  1  0  0  0  0
  3 30  1  0  0  0  0
  4  5  1  0  0  0  0
  4 31  1  0  0  0  0
  4 32  1  0  0  0  0
  5  6  2  0  0  0  0
  5 10  1  0  0  0  0
  6  7  1  0  0  0  0
  7  8  2  0  0  0  0
  7 33  1  0  0  0  0
  8  9  1  0  0  0  0
  8 34  1  0  0  0  0
  9 10  2  0  0  0  0
  9 35  1  0  0  0  0
 10 11  1  0  0  0  0
 11 12  2  0  0  0  0
 11 17  1  0  0  0  0
 12 13  1  0  0  0  0
 12 36  1  0  0  0  0
 13 14  2  0  0  0  0
 13 37  1  0  0  0  0
 14 15  1  0  0  0  0
 14 16  1  0  0  0  0
 16 17  2  0  0  0  0
 16 38  1  0  0  0  0
 17 39  1  0  0  0  0
 18 19  1  0  0  0  0
 18 25  1  0  0  0  0
 18 40  1  0  0  0  0
 19 20  2  0  0  0  0
 19 24  1  0  0  0  0
 20 21  1  0  0  0  0
 20 41  1  0  0  0  0
 21 22  2  0  0  0  0
 21 42  1  0  0  0  0
 22 23  1  0  0  0  0
 22 43  1  0  0  0  0
 23 24  2  0  0  0  0
 23 44  1  0  0  0  0
 24 45  1  0  0  0  0
 25 26  1  0  0  0  0
 25 29  1  0  0  0  0
 26 27  2  0  0  0  0
 26 46  1  0  0  0  0
 27 28  1  0  0  0  0
 27 47  1  0  0  0  0
 28 29  2  0  0  0  0
 28 48  1  0  0  0  0
M  END
$$$$
