
 OpenBabel01122422363D

 54 57  0  0  0  0  0  0  0  0999 V2000
   11.1332   -5.0256   -1.2666 C   0  0  0  0  0  0  0  0  0  0  0  0
   10.4840   -4.1243   -0.3724 O   0  0  0  0  0  0  0  0  0  0  0  0
    9.1175   -4.2719   -0.2957 C   0  0  0  0  0  0  0  0  0  0  0  0
    8.4949   -5.4867   -0.5596 C   0  0  0  0  0  0  0  0  0  0  0  0
    7.1163   -5.5996   -0.4836 C   0  0  0  0  0  0  0  0  0  0  0  0
    6.3209   -4.5415   -0.0278 C   0  0  0  0  0  0  0  0  0  0  0  0
    4.8419   -4.7767    0.2384 C   0  0  0  0  0  0  0  0  0  0  0  0
    4.2768   -6.2094    0.1634 C   0  0  0  0  0  0  0  0  0  0  0  0
    4.9138   -7.3552    0.8278 N   0  0  0  0  0  0  0  0  0  0  0  0
    5.8333   -7.5246    1.8429 C   0  0  0  0  0  0  0  0  0  0  0  0
    6.2689   -8.6631    2.0487 O   0  0  0  0  0  0  0  0  0  0  0  0
    6.3343   -6.3698    2.6507 C   0  0  0  0  0  0  0  0  0  0  0  0
    5.3747   -5.5104    3.0958 N   0  0  0  0  0  0  0  0  0  0  0  0
    5.8063   -4.3203    3.5658 C   0  0  0  0  0  0  0  0  0  0  0  0
    7.1394   -3.9601    3.6440 C   0  0  0  0  0  0  0  0  0  0  0  0
    8.1035   -4.8953    3.2781 C   0  0  0  0  0  0  0  0  0  0  0  0
    7.7131   -6.1461    2.7945 C   0  0  0  0  0  0  0  0  0  0  0  0
    8.6154   -7.0533    2.3061 O   0  0  0  0  0  0  0  0  0  0  0  0
    9.8265   -7.1700    3.0596 C   0  0  0  0  0  0  0  0  0  0  0  0
   10.6645   -8.3194    2.5527 C   0  0  0  0  0  0  0  0  0  0  0  0
   12.0483   -8.3376    2.7818 C   0  0  0  0  0  0  0  0  0  0  0  0
   12.7915   -9.4150    2.3203 C   0  0  0  0  0  0  0  0  0  0  0  0
   12.2510  -10.4617    1.6704 N   0  0  0  0  0  0  0  0  0  0  0  0
   10.9104  -10.4352    1.4732 C   0  0  0  0  0  0  0  0  0  0  0  0
   10.0896   -9.4075    1.8967 C   0  0  0  0  0  0  0  0  0  0  0  0
    6.9433   -3.2874    0.2560 C   0  0  0  0  0  0  0  0  0  0  0  0
    6.2227   -2.1513    0.7172 C   0  0  0  0  0  0  0  0  0  0  0  0
    6.8548   -0.9398    1.0156 C   0  0  0  0  0  0  0  0  0  0  0  0
    8.2254   -0.8205    0.8531 C   0  0  0  0  0  0  0  0  0  0  0  0
    8.9626   -1.9164    0.4086 C   0  0  0  0  0  0  0  0  0  0  0  0
    8.3523   -3.1566    0.1138 C   0  0  0  0  0  0  0  0  0  0  0  0
   12.1432   -4.6503   -1.4491 H   0  0  0  0  0  0  0  0  0  0  0  0
   10.6145   -5.0756   -2.2329 H   0  0  0  0  0  0  0  0  0  0  0  0
   11.2237   -6.0211   -0.8177 H   0  0  0  0  0  0  0  0  0  0  0  0
    9.0574   -6.3886   -0.7766 H   0  0  0  0  0  0  0  0  0  0  0  0
    6.6984   -6.5768   -0.7051 H   0  0  0  0  0  0  0  0  0  0  0  0
    4.2804   -4.1636   -0.4794 H   0  0  0  0  0  0  0  0  0  0  0  0
    4.5689   -4.3708    1.2137 H   0  0  0  0  0  0  0  0  0  0  0  0
    4.2537   -6.4891   -0.8998 H   0  0  0  0  0  0  0  0  0  0  0  0
    3.2295   -6.2065    0.4868 H   0  0  0  0  0  0  0  0  0  0  0  0
    4.6933   -8.2536    0.4154 H   0  0  0  0  0  0  0  0  0  0  0  0
    5.0234   -3.6055    3.7994 H   0  0  0  0  0  0  0  0  0  0  0  0
    7.4255   -2.9482    3.9112 H   0  0  0  0  0  0  0  0  0  0  0  0
    9.1426   -4.5825    3.2720 H   0  0  0  0  0  0  0  0  0  0  0  0
    9.6010   -7.3431    4.1178 H   0  0  0  0  0  0  0  0  0  0  0  0
   10.4199   -6.2537    2.9470 H   0  0  0  0  0  0  0  0  0  0  0  0
   12.5454   -7.5250    3.3026 H   0  0  0  0  0  0  0  0  0  0  0  0
   13.8626   -9.4649    2.4696 H   0  0  0  0  0  0  0  0  0  0  0  0
   10.5009  -11.2964    0.9486 H   0  0  0  0  0  0  0  0  0  0  0  0
    9.0199   -9.4603    1.7115 H   0  0  0  0  0  0  0  0  0  0  0  0
    5.1464   -2.1991    0.8671 H   0  0  0  0  0  0  0  0  0  0  0  0
    6.2740   -0.0941    1.3743 H   0  0  0  0  0  0  0  0  0  0  0  0
    8.7266    0.1187    1.0707 H   0  0  0  0  0  0  0  0  0  0  0  0
   10.0399   -1.8023    0.2950 H   0  0  0  0  0  0  0  0  0  0  0  0
  1  2  1  0  0  0  0
  1 32  1  0  0  0  0
  1 33  1  0  0  0  0
  1 34  1  0  0  0  0
  2  3  1  0  0  0  0
  3  4  2  0  0  0  0
  3 31  1  0  0  0  0
  4  5  1  0  0  0  0
  4 35  1  0  0  0  0
  5  6  2  0  0  0  0
  5 36  1  0  0  0  0
  6  7  1  0  0  0  0
  6 26  1  0  0  0  0
  7  8  1  0  0  0  0
  7 37  1  0  0  0  0
  7 38  1  0  0  0  0
  8  9  1  0  0  0  0
  8 39  1  0  0  0  0
  8 40  1  0  0  0  0
  9 10  1  0  0  0  0
  9 41  1  0  0  0  0
 10 11  2  0  0  0  0
 10 12  1  0  0  0  0
 12 13  2  0  0  0  0
 12 17  1  0  0  0  0
 13 14  1  0  0  0  0
 14 15  2  0  0  0  0
 14 42  1  0  0  0  0
 15 16  1  0  0  0  0
 15 43  1  0  0  0  0
 16 17  2  0  0  0  0
 16 44  1  0  0  0  0
 17 18  1  0  0  0  0
 18 19  1  0  0  0  0
 19 20  1  0  0  0  0
 19 45  1  0  0  0  0
 19 46  1  0  0  0  0
 20 21  2  0  0  0  0
 20 25  1  0  0  0  0
 21 22  1  0  0  0  0
 21 47  1  0  0  0  0
 22 23  2  0  0  0  0
 22 48  1  0  0  0  0
 23 24  1  0  0  0  0
 24 25  2  0  0  0  0
 24 49  1  0  0  0  0
 25 50  1  0  0  0  0
 26 27  2  0  0  0  0
 26 31  1  0  0  0  0
 27 28  1  0  0  0  0
 27 51  1  0  0  0  0
 28 29  2  0  0  0  0
 28 52  1  0  0  0  0
 29 30  1  0  0  0  0
 29 53  1  0  0  0  0
 30 31  2  0  0  0  0
 30 54  1  0  0  0  0
M  END
$$$$
