
 OpenBabel01122422363D

 44 47  0  0  0  0  0  0  0  0999 V2000
    1.2519    1.5715    1.8250 C   0  0  0  0  0  0  0  0  0  0  0  0
    2.6575    1.6454    1.6062 O   0  0  0  0  0  0  0  0  0  0  0  0
    3.1282    0.7905    0.6601 C   0  0  0  0  0  0  0  0  0  0  0  0
    2.4437    0.0256   -0.0034 O   0  0  0  0  0  0  0  0  0  0  0  0
    4.6098    0.9595    0.5323 C   0  0  0  0  0  0  0  0  0  0  0  0
    5.2319    1.2988    1.6914 N   0  0  0  0  0  0  0  0  0  0  0  0
    6.5538    1.4702    1.7028 C   0  0  0  0  0  0  0  0  0  0  0  0
    7.1872    1.8309    2.9035 N   0  0  0  0  0  0  0  0  0  0  0  0
    6.5042    2.0577    4.0873 C   0  0  0  0  0  0  0  0  0  0  0  0
    5.2905    1.9983    4.2487 O   0  0  0  0  0  0  0  0  0  0  0  0
    7.3376    2.4039    5.2294 C   0  0  0  0  0  0  0  0  0  0  0  0
    8.7080    2.5175    5.3596 C   0  0  0  0  0  0  0  0  0  0  0  0
    8.9657    2.8960    6.6655 N   0  0  0  0  0  0  0  0  0  0  0  0
   10.2168    3.2230    7.2528 C   0  0  0  0  0  0  0  0  0  0  0  0
   11.3878    3.2424    6.4891 C   0  0  0  0  0  0  0  0  0  0  0  0
   12.5885    3.6011    7.0925 C   0  0  0  0  0  0  0  0  0  0  0  0
   13.7025    3.6408    6.3502 F   0  0  0  0  0  0  0  0  0  0  0  0
   12.6525    3.9279    8.4419 C   0  0  0  0  0  0  0  0  0  0  0  0
   11.4903    3.9075    9.2087 C   0  0  0  0  0  0  0  0  0  0  0  0
   10.2731    3.5621    8.6164 C   0  0  0  0  0  0  0  0  0  0  0  0
    7.8271    2.9660    7.3932 N   0  0  0  0  0  0  0  0  0  0  0  0
    6.8558    2.7096    6.5205 C   0  0  0  0  0  0  0  0  0  0  0  0
    7.3147    1.2977    0.5548 C   0  0  0  0  0  0  0  0  0  0  0  0
    6.6839    0.9480   -0.6561 C   0  0  0  0  0  0  0  0  0  0  0  0
    7.4280    0.7796   -1.8395 C   0  0  0  0  0  0  0  0  0  0  0  0
    6.8055    0.4529   -3.0468 C   0  0  0  0  0  0  0  0  0  0  0  0
    5.4285    0.2910   -3.0939 C   0  0  0  0  0  0  0  0  0  0  0  0
    4.6751    0.4485   -1.9319 C   0  0  0  0  0  0  0  0  0  0  0  0
    5.2825    0.7727   -0.6903 C   0  0  0  0  0  0  0  0  0  0  0  0
    1.0079    2.2017    2.6845 H   0  0  0  0  0  0  0  0  0  0  0  0
    0.9420    0.5460    2.0495 H   0  0  0  0  0  0  0  0  0  0  0  0
    0.7199    1.9547    0.9493 H   0  0  0  0  0  0  0  0  0  0  0  0
    8.1876    1.9376    2.8900 H   0  0  0  0  0  0  0  0  0  0  0  0
    9.5074    2.3752    4.6515 H   0  0  0  0  0  0  0  0  0  0  0  0
   11.4102    3.0070    5.4325 H   0  0  0  0  0  0  0  0  0  0  0  0
   13.6047    4.2015    8.8845 H   0  0  0  0  0  0  0  0  0  0  0  0
   11.5251    4.1656   10.2642 H   0  0  0  0  0  0  0  0  0  0  0  0
    9.3724    3.5666    9.2304 H   0  0  0  0  0  0  0  0  0  0  0  0
    5.8237    2.7497    6.8508 H   0  0  0  0  0  0  0  0  0  0  0  0
    8.3909    1.4413    0.5813 H   0  0  0  0  0  0  0  0  0  0  0  0
    8.5090    0.9054   -1.8370 H   0  0  0  0  0  0  0  0  0  0  0  0
    7.3943    0.3283   -3.9514 H   0  0  0  0  0  0  0  0  0  0  0  0
    4.9328    0.0423   -4.0292 H   0  0  0  0  0  0  0  0  0  0  0  0
    3.5971    0.3173   -2.0105 H   0  0  0  0  0  0  0  0  0  0  0  0
  1  2  1  0  0  0  0
  1 30  1  0  0  0  0
  1 31  1  0  0  0  0
  1 32  1  0  0  0  0
  2  3  1  0  0  0  0
  3  4  2  0  0  0  0
  3  5  1  0  0  0  0
  5  6  2  0  0  0  0
  5 29  1  0  0  0  0
  6  7  1  0  0  0  0
  7  8  1  0  0  0  0
  7 23  2  0  0  0  0
  8  9  1  0  0  0  0
  8 33  1  0  0  0  0
  9 10  2  0  0  0  0
  9 11  1  0  0  0  0
 11 12  2  0  0  0  0
 11 22  1  0  0  0  0
 12 13  1  0  0  0  0
 12 34  1  0  0  0  0
 13 14  1  0  0  0  0
 13 21  1  0  0  0  0
 14 15  2  0  0  0  0
 14 20  1  0  0  0  0
 15 16  1  0  0  0  0
 15 35  1  0  0  0  0
 16 17  1  0  0  0  0
 16 18  2  0  0  0  0
 18 19  1  0  0  0  0
 18 36  1  0  0  0  0
 19 20  2  0  0  0  0
 19 37  1  0  0  0  0
 20 38  1  0  0  0  0
 21 22  2  0  0  0  0
 22 39  1  0  0  0  0
 23 24  1  0  0  0  0
 23 40  1  0  0  0  0
 24 25  2  0  0  0  0
 24 29  1  0  0  0  0
 25 26  1  0  0  0  0
 25 41  1  0  0  0  0
 26 27  2  0  0  0  0
 26 42  1  0  0  0  0
 27 28  1  0  0  0  0
 27 43  1  0  0  0  0
 28 29  2  0  0  0  0
 28 44  1  0  0  0  0
M  END
$$$$
