
 OpenBabel01122422363D

 40 43  0  0  0  0  0  0  0  0999 V2000
    0.9848   -2.0884    0.3868 C   0  0  0  0  0  0  0  0  0  0  0  0
    2.4734   -2.2150    0.3099 C   0  0  0  0  0  0  0  0  0  0  0  0
    3.0053   -3.4347    0.4842 N   0  0  0  0  0  0  0  0  0  0  0  0
    4.3385   -3.4807    0.4148 C   0  0  0  0  0  0  0  0  0  0  0  0
    4.8392   -4.7289    0.6205 O   0  0  0  0  0  0  0  0  0  0  0  0
    5.1747   -2.3998    0.1892 C   0  0  0  0  0  0  0  0  0  0  0  0
    6.5828   -2.4773    0.1183 C   0  0  0  0  0  0  0  0  0  0  0  0
    7.3469   -1.3307   -0.0824 C   0  0  0  0  0  0  0  0  0  0  0  0
    8.7519   -1.3435   -0.1744 N   0  0  0  0  0  0  0  0  0  0  0  0
    9.5509   -2.4562   -0.3905 C   0  0  0  0  0  0  0  0  0  0  0  0
    9.1338   -3.5943   -0.5791 O   0  0  0  0  0  0  0  0  0  0  0  0
   10.9634   -2.1711   -0.4248 C   0  0  0  0  0  0  0  0  0  0  0  0
   12.0414   -2.9899   -0.6564 C   0  0  0  0  0  0  0  0  0  0  0  0
   13.1760   -2.1448   -0.5722 C   0  0  0  0  0  0  0  0  0  0  0  0
   14.5761   -2.5092   -0.7510 C   0  0  0  0  0  0  0  0  0  0  0  0
   14.9439   -3.5482   -1.6162 C   0  0  0  0  0  0  0  0  0  0  0  0
   14.0149   -4.2172   -2.3171 F   0  0  0  0  0  0  0  0  0  0  0  0
   16.2757   -3.9180   -1.7936 C   0  0  0  0  0  0  0  0  0  0  0  0
   17.2604   -3.2372   -1.0946 C   0  0  0  0  0  0  0  0  0  0  0  0
   18.5418   -3.5870   -1.2524 F   0  0  0  0  0  0  0  0  0  0  0  0
   16.9363   -2.2039   -0.2278 C   0  0  0  0  0  0  0  0  0  0  0  0
   15.5992   -1.8464   -0.0621 C   0  0  0  0  0  0  0  0  0  0  0  0
   15.3242   -0.8625    0.8066 F   0  0  0  0  0  0  0  0  0  0  0  0
   12.7905   -0.8862   -0.3043 N   0  0  0  0  0  0  0  0  0  0  0  0
   11.4141   -0.9076   -0.2086 O   0  0  0  0  0  0  0  0  0  0  0  0
    6.6913   -0.1043   -0.1892 C   0  0  0  0  0  0  0  0  0  0  0  0
    5.2902   -0.0458   -0.1478 C   0  0  0  0  0  0  0  0  0  0  0  0
    4.5136   -1.1833    0.0386 C   0  0  0  0  0  0  0  0  0  0  0  0
    3.1767   -1.0859    0.0880 N   0  0  0  0  0  0  0  0  0  0  0  0
    0.5216   -3.0480    0.6363 H   0  0  0  0  0  0  0  0  0  0  0  0
    0.5887   -1.7492   -0.5746 H   0  0  0  0  0  0  0  0  0  0  0  0
    0.7153   -1.3632    1.1601 H   0  0  0  0  0  0  0  0  0  0  0  0
    4.0179   -5.2273    0.7754 H   0  0  0  0  0  0  0  0  0  0  0  0
    7.0430   -3.4521    0.2509 H   0  0  0  0  0  0  0  0  0  0  0  0
    9.2251   -0.4465   -0.1679 H   0  0  0  0  0  0  0  0  0  0  0  0
   11.9983   -4.0503   -0.8615 H   0  0  0  0  0  0  0  0  0  0  0  0
   16.5360   -4.7235   -2.4708 H   0  0  0  0  0  0  0  0  0  0  0  0
   17.7126   -1.6801    0.3185 H   0  0  0  0  0  0  0  0  0  0  0  0
    7.2463    0.8195   -0.3335 H   0  0  0  0  0  0  0  0  0  0  0  0
    4.7926    0.9150   -0.2620 H   0  0  0  0  0  0  0  0  0  0  0  0
  1  2  1  0  0  0  0
  1 30  1  0  0  0  0
  1 31  1  0  0  0  0
  1 32  1  0  0  0  0
  2  3  2  0  0  0  0
  2 29  1  0  0  0  0
  3  4  1  0  0  0  0
  4  5  1  0  0  0  0
  4  6  2  0  0  0  0
  5 33  1  0  0  0  0
  6  7  1  0  0  0  0
  6 28  1  0  0  0  0
  7  8  2  0  0  0  0
  7 34  1  0  0  0  0
  8  9  1  0  0  0  0
  8 26  1  0  0  0  0
  9 10  1  0  0  0  0
  9 35  1  0  0  0  0
 10 11  2  0  0  0  0
 10 12  1  0  0  0  0
 12 13  2  0  0  0  0
 12 25  1  0  0  0  0
 13 14  1  0  0  0  0
 13 36  1  0  0  0  0
 14 15  1  0  0  0  0
 14 24  2  0  0  0  0
 15 16  2  0  0  0  0
 15 22  1  0  0  0  0
 16 17  1  0  0  0  0
 16 18  1  0  0  0  0
 18 19  2  0  0  0  0
 18 37  1  0  0  0  0
 19 20  1  0  0  0  0
 19 21  1  0  0  0  0
 21 22  2  0  0  0  0
 21 38  1  0  0  0  0
 22 23  1  0  0  0  0
 24 25  1  0  0  0  0
 26 27  2  0  0  0  0
 26 39  1  0  0  0  0
 27 28  1  0  0  0  0
 27 40  1  0  0  0  0
 28 29  2  0  0  0  0
M  END
$$$$
