
 OpenBabel01122422363D

 55 58  0  0  0  0  0  0  0  0999 V2000
    3.3510   -0.4722   -2.9356 N   0  0  0  0  0  0  0  0  0  0  0  0
    2.6495    0.1962   -1.9703 C   0  0  0  0  0  0  0  0  0  0  0  0
    1.4271    0.1535   -1.9682 O   0  0  0  0  0  0  0  0  0  0  0  0
    3.4484    1.0731   -0.9988 C   0  0  0  0  0  0  0  0  0  0  0  0
    4.8930    0.7917   -0.8168 N   0  0  0  0  0  0  0  0  0  0  0  0
    5.2552   -0.2476    0.1500 C   0  0  0  0  0  0  0  0  0  0  0  0
    4.8696    0.0616    1.5831 C   0  0  0  0  0  0  0  0  0  0  0  0
    4.6562   -0.9984    2.4716 C   0  0  0  0  0  0  0  0  0  0  0  0
    4.2202   -0.7639    3.7829 C   0  0  0  0  0  0  0  0  0  0  0  0
    3.9961    0.5366    4.2654 C   0  0  0  0  0  0  0  0  0  0  0  0
    3.4681    0.7839    5.6318 C   0  0  0  0  0  0  0  0  0  0  0  0
    3.7800   -0.0625    6.7122 C   0  0  0  0  0  0  0  0  0  0  0  0
    3.2780    0.1725    7.9979 C   0  0  0  0  0  0  0  0  0  0  0  0
    2.4570    1.2689    8.2380 C   0  0  0  0  0  0  0  0  0  0  0  0
    2.1258    2.1205    7.1904 C   0  0  0  0  0  0  0  0  0  0  0  0
    2.6186    1.8744    5.9038 C   0  0  0  0  0  0  0  0  0  0  0  0
    4.2848    1.5938    3.3846 C   0  0  0  0  0  0  0  0  0  0  0  0
    4.7236    1.3647    2.0725 C   0  0  0  0  0  0  0  0  0  0  0  0
    5.8078    1.5750   -1.5019 C   0  0  0  0  0  0  0  0  0  0  0  0
    5.4172    2.4250   -2.3079 O   0  0  0  0  0  0  0  0  0  0  0  0
    7.3112    1.3623   -1.2716 C   0  0  0  0  0  0  0  0  0  0  0  0
    8.0689    2.4280   -2.0616 C   0  0  0  0  0  0  0  0  0  0  0  0
    9.5583    2.4162   -2.0273 C   0  0  0  0  0  0  0  0  0  0  0  0
   10.4134    1.6308   -1.3990 N   0  0  0  0  0  0  0  0  0  0  0  0
   11.6760    2.1546   -1.6682 C   0  0  0  0  0  0  0  0  0  0  0  0
   12.9673    1.7720   -1.2565 C   0  0  0  0  0  0  0  0  0  0  0  0
   13.1647    0.6982   -0.4800 F   0  0  0  0  0  0  0  0  0  0  0  0
   14.0784    2.5349   -1.6496 C   0  0  0  0  0  0  0  0  0  0  0  0
   13.9205    3.6620   -2.4593 C   0  0  0  0  0  0  0  0  0  0  0  0
   12.6566    4.0464   -2.9112 C   0  0  0  0  0  0  0  0  0  0  0  0
   11.5700    3.2713   -2.4937 C   0  0  0  0  0  0  0  0  0  0  0  0
   10.2316    3.3791   -2.7420 N   0  0  0  0  0  0  0  0  0  0  0  0
    2.8067   -0.9151   -3.6624 H   0  0  0  0  0  0  0  0  0  0  0  0
    4.3292   -0.2831   -3.0978 H   0  0  0  0  0  0  0  0  0  0  0  0
    2.9476    1.0018   -0.0284 H   0  0  0  0  0  0  0  0  0  0  0  0
    3.3182    2.1045   -1.3461 H   0  0  0  0  0  0  0  0  0  0  0  0
    6.3275   -0.4542    0.1226 H   0  0  0  0  0  0  0  0  0  0  0  0
    4.7419   -1.1606   -0.1763 H   0  0  0  0  0  0  0  0  0  0  0  0
    4.8028   -2.0266    2.1463 H   0  0  0  0  0  0  0  0  0  0  0  0
    4.0293   -1.6280    4.4154 H   0  0  0  0  0  0  0  0  0  0  0  0
    4.4338   -0.9201    6.5718 H   0  0  0  0  0  0  0  0  0  0  0  0
    3.5352   -0.5015    8.8109 H   0  0  0  0  0  0  0  0  0  0  0  0
    2.0750    1.4579    9.2376 H   0  0  0  0  0  0  0  0  0  0  0  0
    1.4797    2.9764    7.3683 H   0  0  0  0  0  0  0  0  0  0  0  0
    2.3133    2.5486    5.1066 H   0  0  0  0  0  0  0  0  0  0  0  0
    4.1664    2.6262    3.7081 H   0  0  0  0  0  0  0  0  0  0  0  0
    4.9116    2.2250    1.4335 H   0  0  0  0  0  0  0  0  0  0  0  0
    7.5876    0.3604   -1.6173 H   0  0  0  0  0  0  0  0  0  0  0  0
    7.5374    1.4520   -0.2035 H   0  0  0  0  0  0  0  0  0  0  0  0
    7.7487    3.4150   -1.6983 H   0  0  0  0  0  0  0  0  0  0  0  0
    7.7676    2.3712   -3.1164 H   0  0  0  0  0  0  0  0  0  0  0  0
   15.0687    2.2438   -1.3115 H   0  0  0  0  0  0  0  0  0  0  0  0
   14.7904    4.2507   -2.7428 H   0  0  0  0  0  0  0  0  0  0  0  0
   12.5256    4.9186   -3.5452 H   0  0  0  0  0  0  0  0  0  0  0  0
    9.7955    4.0832   -3.3211 H   0  0  0  0  0  0  0  0  0  0  0  0
  1  2  1  0  0  0  0
  1 33  1  0  0  0  0
  1 34  1  0  0  0  0
  2  3  2  0  0  0  0
  2  4  1  0  0  0  0
  4  5  1  0  0  0  0
  4 35  1  0  0  0  0
  4 36  1  0  0  0  0
  5  6  1  0  0  0  0
  5 19  1  0  0  0  0
  6  7  1  0  0  0  0
  6 37  1  0  0  0  0
  6 38  1  0  0  0  0
  7  8  2  0  0  0  0
  7 18  1  0  0  0  0
  8  9  1  0  0  0  0
  8 39  1  0  0  0  0
  9 10  2  0  0  0  0
  9 40  1  0  0  0  0
 10 11  1  0  0  0  0
 10 17  1  0  0  0  0
 11 12  2  0  0  0  0
 11 16  1  0  0  0  0
 12 13  1  0  0  0  0
 12 41  1  0  0  0  0
 13 14  2  0  0  0  0
 13 42  1  0  0  0  0
 14 15  1  0  0  0  0
 14 43  1  0  0  0  0
 15 16  2  0  0  0  0
 15 44  1  0  0  0  0
 16 45  1  0  0  0  0
 17 18  2  0  0  0  0
 17 46  1  0  0  0  0
 18 47  1  0  0  0  0
 19 20  2  0  0  0  0
 19 21  1  0  0  0  0
 21 22  1  0  0  0  0
 21 48  1  0  0  0  0
 21 49  1  0  0  0  0
 22 23  1  0  0  0  0
 22 50  1  0  0  0  0
 22 51  1  0  0  0  0
 23 24  2  0  0  0  0
 23 32  1  0  0  0  0
 24 25  1  0  0  0  0
 25 26  2  0  0  0  0
 25 31  1  0  0  0  0
 26 27  1  0  0  0  0
 26 28  1  0  0  0  0
 28 29  2  0  0  0  0
 28 52  1  0  0  0  0
 29 30  1  0  0  0  0
 29 53  1  0  0  0  0
 30 31  2  0  0  0  0
 30 54  1  0  0  0  0
 31 32  1  0  0  0  0
 32 55  1  0  0  0  0
M  END
$$$$
