
 OpenBabel01122422363D

 52 55  0  0  0  0  0  0  0  0999 V2000
   -0.4814   -1.2306    2.9683 C   0  0  0  0  0  0  0  0  0  0  0  0
    0.1362   -0.2560    2.0018 C   0  0  0  0  0  0  0  0  0  0  0  0
   -0.5225    0.9660    1.7755 C   0  0  0  0  0  0  0  0  0  0  0  0
    0.0130    1.9241    0.9156 C   0  0  0  0  0  0  0  0  0  0  0  0
    1.2140    1.6748    0.2647 C   0  0  0  0  0  0  0  0  0  0  0  0
    1.8780    0.4662    0.4751 C   0  0  0  0  0  0  0  0  0  0  0  0
    1.3565   -0.5159    1.3411 C   0  0  0  0  0  0  0  0  0  0  0  0
    2.1855   -1.7666    1.5757 C   0  0  0  0  0  0  0  0  0  0  0  0
    2.3981   -2.4852    0.3162 N   0  0  0  0  0  0  0  0  0  0  0  0
    3.3000   -3.5575    0.2935 C   0  0  0  0  0  0  0  0  0  0  0  0
    3.1156   -4.5922   -0.6371 C   0  0  0  0  0  0  0  0  0  0  0  0
    4.0246   -5.6607   -0.7445 C   0  0  0  0  0  0  0  0  0  0  0  0
    5.1631   -5.6903    0.0626 C   0  0  0  0  0  0  0  0  0  0  0  0
    6.1805   -6.7767   -0.0207 C   0  0  0  0  0  0  0  0  0  0  0  0
    7.3565   -6.5409    0.2336 O   0  0  0  0  0  0  0  0  0  0  0  0
    5.7166   -8.0332   -0.3417 N   0  0  0  0  0  0  0  0  0  0  0  0
    6.6025   -9.1848   -0.3104 C   0  0  0  0  0  0  0  0  0  0  0  0
    6.6471   -9.8228    1.0612 C   0  0  0  0  0  0  0  0  0  0  0  0
    7.6189   -9.4349    1.9855 C   0  0  0  0  0  0  0  0  0  0  0  0
    7.5902   -9.9739    3.2709 C   0  0  0  0  0  0  0  0  0  0  0  0
    6.5832  -10.8728    3.6059 C   0  0  0  0  0  0  0  0  0  0  0  0
    6.4460  -11.4311    4.9499 C   0  0  0  0  0  0  0  0  0  0  0  0
    5.4270  -12.2582    5.2191 C   0  0  0  0  0  0  0  0  0  0  0  0
    4.4489  -12.6432    4.1694 C   0  0  0  0  0  0  0  0  0  0  0  0
    3.5236  -13.4047    4.4301 O   0  0  0  0  0  0  0  0  0  0  0  0
    4.6366  -12.1049    2.9303 N   0  0  0  0  0  0  0  0  0  0  0  0
    5.6587  -11.2143    2.6165 C   0  0  0  0  0  0  0  0  0  0  0  0
    5.6677  -10.7163    1.3627 N   0  0  0  0  0  0  0  0  0  0  0  0
    5.3963   -4.6327    0.9442 C   0  0  0  0  0  0  0  0  0  0  0  0
    4.4774   -3.5807    1.0512 C   0  0  0  0  0  0  0  0  0  0  0  0
   -1.4439   -0.8666    3.3451 H   0  0  0  0  0  0  0  0  0  0  0  0
    0.1740   -1.3746    3.8328 H   0  0  0  0  0  0  0  0  0  0  0  0
   -0.6675   -2.1910    2.4781 H   0  0  0  0  0  0  0  0  0  0  0  0
   -1.4614    1.1866    2.2800 H   0  0  0  0  0  0  0  0  0  0  0  0
   -0.5065    2.8662    0.7594 H   0  0  0  0  0  0  0  0  0  0  0  0
    1.6410    2.4211   -0.4005 H   0  0  0  0  0  0  0  0  0  0  0  0
    2.8245    0.2873   -0.0340 H   0  0  0  0  0  0  0  0  0  0  0  0
    1.7062   -2.4399    2.2925 H   0  0  0  0  0  0  0  0  0  0  0  0
    3.1271   -1.4307    2.0242 H   0  0  0  0  0  0  0  0  0  0  0  0
    1.5112   -2.7104   -0.1279 H   0  0  0  0  0  0  0  0  0  0  0  0
    2.2556   -4.5758   -1.3038 H   0  0  0  0  0  0  0  0  0  0  0  0
    3.8467   -6.4305   -1.4881 H   0  0  0  0  0  0  0  0  0  0  0  0
    4.7265   -8.2253   -0.2702 H   0  0  0  0  0  0  0  0  0  0  0  0
    7.6085   -8.8984   -0.6366 H   0  0  0  0  0  0  0  0  0  0  0  0
    6.2135   -9.9096   -1.0341 H   0  0  0  0  0  0  0  0  0  0  0  0
    8.3737   -8.6995    1.7169 H   0  0  0  0  0  0  0  0  0  0  0  0
    8.3361   -9.6673    3.9989 H   0  0  0  0  0  0  0  0  0  0  0  0
    7.1592  -11.1490    5.7159 H   0  0  0  0  0  0  0  0  0  0  0  0
    5.2642  -12.6804    6.2031 H   0  0  0  0  0  0  0  0  0  0  0  0
    3.9862  -12.3408    2.1973 H   0  0  0  0  0  0  0  0  0  0  0  0
    6.3034   -4.6122    1.5459 H   0  0  0  0  0  0  0  0  0  0  0  0
    4.7298   -2.7651    1.7217 H   0  0  0  0  0  0  0  0  0  0  0  0
  1  2  1  0  0  0  0
  1 31  1  0  0  0  0
  1 32  1  0  0  0  0
  1 33  1  0  0  0  0
  2  3  2  0  0  0  0
  2  7  1  0  0  0  0
  3  4  1  0  0  0  0
  3 34  1  0  0  0  0
  4  5  2  0  0  0  0
  4 35  1  0  0  0  0
  5  6  1  0  0  0  0
  5 36  1  0  0  0  0
  6  7  2  0  0  0  0
  6 37  1  0  0  0  0
  7  8  1  0  0  0  0
  8  9  1  0  0  0  0
  8 38  1  0  0  0  0
  8 39  1  0  0  0  0
  9 10  1  0  0  0  0
  9 40  1  0  0  0  0
 10 11  2  0  0  0  0
 10 30  1  0  0  0  0
 11 12  1  0  0  0  0
 11 41  1  0  0  0  0
 12 13  2  0  0  0  0
 12 42  1  0  0  0  0
 13 14  1  0  0  0  0
 13 29  1  0  0  0  0
 14 15  2  0  0  0  0
 14 16  1  0  0  0  0
 16 17  1  0  0  0  0
 16 43  1  0  0  0  0
 17 18  1  0  0  0  0
 17 44  1  0  0  0  0
 17 45  1  0  0  0  0
 18 19  2  0  0  0  0
 18 28  1  0  0  0  0
 19 20  1  0  0  0  0
 19 46  1  0  0  0  0
 20 21  2  0  0  0  0
 20 47  1  0  0  0  0
 21 22  1  0  0  0  0
 21 27  1  0  0  0  0
 22 23  2  0  0  0  0
 22 48  1  0  0  0  0
 23 24  1  0  0  0  0
 23 49  1  0  0  0  0
 24 25  2  0  0  0  0
 24 26  1  0  0  0  0
 26 27  1  0  0  0  0
 26 50  1  0  0  0  0
 27 28  2  0  0  0  0
 29 30  2  0  0  0  0
 29 51  1  0  0  0  0
 30 52  1  0  0  0  0
M  END
$$$$
