
 OpenBabel01122422363D

 46 49  0  0  0  0  0  0  0  0999 V2000
    5.8603   -1.6132   -5.4793 N   0  0  0  0  0  0  0  0  0  0  0  0
    6.2255   -2.6795   -5.2103 C   0  0  0  0  0  0  0  0  0  0  0  0
    6.7072   -4.0315   -4.8884 C   0  0  0  0  0  0  0  0  0  0  0  0
    6.4493   -4.4097   -3.4495 C   0  0  0  0  0  0  0  0  0  0  0  0
    5.2595   -5.0511   -3.0661 C   0  0  0  0  0  0  0  0  0  0  0  0
    5.0295   -5.3865   -1.7256 C   0  0  0  0  0  0  0  0  0  0  0  0
    5.9875   -5.0799   -0.7596 C   0  0  0  0  0  0  0  0  0  0  0  0
    5.7571   -5.5004    0.5379 O   0  0  0  0  0  0  0  0  0  0  0  0
    6.8633   -5.8459    1.2916 C   0  0  0  0  0  0  0  0  0  0  0  0
    6.8977   -5.4512    2.6245 C   0  0  0  0  0  0  0  0  0  0  0  0
    8.0463   -5.6839    3.3865 C   0  0  0  0  0  0  0  0  0  0  0  0
    9.1733   -6.3115    2.8343 C   0  0  0  0  0  0  0  0  0  0  0  0
   10.3902   -6.5256    3.5300 N   0  0  0  0  0  0  0  0  0  0  0  0
   10.6355   -6.1766    4.8448 C   0  0  0  0  0  0  0  0  0  0  0  0
    9.8331   -5.6615    5.6151 O   0  0  0  0  0  0  0  0  0  0  0  0
   11.9826   -6.4646    5.3890 C   0  0  0  0  0  0  0  0  0  0  0  0
   13.1576   -6.5302    4.6406 C   0  0  0  0  0  0  0  0  0  0  0  0
   14.3761   -6.7136    5.3071 C   0  0  0  0  0  0  0  0  0  0  0  0
   14.3857   -6.8335    6.6986 C   0  0  0  0  0  0  0  0  0  0  0  0
   15.6489   -6.9779    7.4353 C   0  0  0  0  0  0  0  0  0  0  0  0
   15.7400   -7.0922    8.7735 N   0  0  0  0  0  0  0  0  0  0  0  0
   17.0606   -7.1700    8.9659 N   0  0  0  0  0  0  0  0  0  0  0  0
   17.7330   -7.1105    7.7904 C   0  0  0  0  0  0  0  0  0  0  0  0
   16.8799   -6.9909    6.8013 N   0  0  0  0  0  0  0  0  0  0  0  0
   13.2462   -6.7919    7.4332 N   0  0  0  0  0  0  0  0  0  0  0  0
   12.0850   -6.5977    6.7700 C   0  0  0  0  0  0  0  0  0  0  0  0
    9.1067   -6.7497    1.5086 C   0  0  0  0  0  0  0  0  0  0  0  0
    7.9461   -6.5512    0.7572 C   0  0  0  0  0  0  0  0  0  0  0  0
    7.1356   -4.3700   -1.1296 C   0  0  0  0  0  0  0  0  0  0  0  0
    7.3840   -4.0702   -2.4655 C   0  0  0  0  0  0  0  0  0  0  0  0
    7.7842   -4.0971   -5.0901 H   0  0  0  0  0  0  0  0  0  0  0  0
    6.2349   -4.7639   -5.5523 H   0  0  0  0  0  0  0  0  0  0  0  0
    4.5041   -5.2994   -3.8097 H   0  0  0  0  0  0  0  0  0  0  0  0
    4.1097   -5.8939   -1.4447 H   0  0  0  0  0  0  0  0  0  0  0  0
    6.0533   -4.9359    3.0749 H   0  0  0  0  0  0  0  0  0  0  0  0
    8.0338   -5.3409    4.4181 H   0  0  0  0  0  0  0  0  0  0  0  0
   11.1150   -7.0104    3.0178 H   0  0  0  0  0  0  0  0  0  0  0  0
   13.1634   -6.3937    3.5644 H   0  0  0  0  0  0  0  0  0  0  0  0
   15.3092   -6.7368    4.7503 H   0  0  0  0  0  0  0  0  0  0  0  0
   17.4170   -7.2584    9.9100 H   0  0  0  0  0  0  0  0  0  0  0  0
   18.8098   -7.1563    7.7185 H   0  0  0  0  0  0  0  0  0  0  0  0
   11.2071   -6.5387    7.4103 H   0  0  0  0  0  0  0  0  0  0  0  0
    9.9532   -7.2308    1.0283 H   0  0  0  0  0  0  0  0  0  0  0  0
    7.9198   -6.8950   -0.2733 H   0  0  0  0  0  0  0  0  0  0  0  0
    7.8703   -4.0765   -0.3845 H   0  0  0  0  0  0  0  0  0  0  0  0
    8.3148   -3.5693   -2.7221 H   0  0  0  0  0  0  0  0  0  0  0  0
  1  2  3  0  0  0  0
  2  3  1  0  0  0  0
  3  4  1  0  0  0  0
  3 31  1  0  0  0  0
  3 32  1  0  0  0  0
  4  5  2  0  0  0  0
  4 30  1  0  0  0  0
  5  6  1  0  0  0  0
  5 33  1  0  0  0  0
  6  7  2  0  0  0  0
  6 34  1  0  0  0  0
  7  8  1  0  0  0  0
  7 29  1  0  0  0  0
  8  9  1  0  0  0  0
  9 10  2  0  0  0  0
  9 28  1  0  0  0  0
 10 11  1  0  0  0  0
 10 35  1  0  0  0  0
 11 12  2  0  0  0  0
 11 36  1  0  0  0  0
 12 13  1  0  0  0  0
 12 27  1  0  0  0  0
 13 14  1  0  0  0  0
 13 37  1  0  0  0  0
 14 15  2  0  0  0  0
 14 16  1  0  0  0  0
 16 17  2  0  0  0  0
 16 26  1  0  0  0  0
 17 18  1  0  0  0  0
 17 38  1  0  0  0  0
 18 19  2  0  0  0  0
 18 39  1  0  0  0  0
 19 20  1  0  0  0  0
 19 25  1  0  0  0  0
 20 21  2  0  0  0  0
 20 24  1  0  0  0  0
 21 22  1  0  0  0  0
 22 23  1  0  0  0  0
 22 40  1  0  0  0  0
 23 24  2  0  0  0  0
 23 41  1  0  0  0  0
 25 26  2  0  0  0  0
 26 42  1  0  0  0  0
 27 28  2  0  0  0  0
 27 43  1  0  0  0  0
 28 44  1  0  0  0  0
 29 30  2  0  0  0  0
 29 45  1  0  0  0  0
 30 46  1  0  0  0  0
M  END
$$$$
