
 OpenBabel01122422363D

 49 52  0  0  0  0  0  0  0  0999 V2000
    4.7336   -3.3207   -2.5795 C   0  0  0  0  0  0  0  0  0  0  0  0
    3.8247   -3.6198   -1.4181 C   0  0  0  0  0  0  0  0  0  0  0  0
    2.7343   -4.1649   -1.5884 O   0  0  0  0  0  0  0  0  0  0  0  0
    4.2696   -3.2552   -0.0396 C   0  0  0  0  0  0  0  0  0  0  0  0
    3.4037   -3.5271    1.0261 C   0  0  0  0  0  0  0  0  0  0  0  0
    3.7837   -3.2265    2.3315 C   0  0  0  0  0  0  0  0  0  0  0  0
    5.0344   -2.6594    2.5840 C   0  0  0  0  0  0  0  0  0  0  0  0
    5.9143   -2.3864    1.5321 C   0  0  0  0  0  0  0  0  0  0  0  0
    7.1763   -1.8556    1.6642 O   0  0  0  0  0  0  0  0  0  0  0  0
    7.6202   -1.6472    3.0071 C   0  0  0  0  0  0  0  0  0  0  0  0
    9.0297   -1.1906    2.9794 C   0  0  0  0  0  0  0  0  0  0  0  0
   10.2404   -1.8356    3.0364 C   0  0  0  0  0  0  0  0  0  0  0  0
   11.2014   -0.7963    3.1398 C   0  0  0  0  0  0  0  0  0  0  0  0
   12.6495   -0.9542    3.2890 C   0  0  0  0  0  0  0  0  0  0  0  0
   13.1865   -2.0583    3.3305 O   0  0  0  0  0  0  0  0  0  0  0  0
   13.3630    0.2165    3.3883 N   0  0  0  0  0  0  0  0  0  0  0  0
   14.8021    0.2008    3.5227 C   0  0  0  0  0  0  0  0  0  0  0  0
   15.3590    1.5810    3.5729 C   0  0  0  0  0  0  0  0  0  0  0  0
   16.6744    1.8045    3.6810 N   0  0  0  0  0  0  0  0  0  0  0  0
   16.7629    3.1956    3.6936 O   0  0  0  0  0  0  0  0  0  0  0  0
   15.4858    3.6754    3.5925 C   0  0  0  0  0  0  0  0  0  0  0  0
   15.3281    5.1262    3.5885 C   0  0  0  0  0  0  0  0  0  0  0  0
   16.4315    5.9919    3.6989 C   0  0  0  0  0  0  0  0  0  0  0  0
   16.2550    7.3789    3.6970 C   0  0  0  0  0  0  0  0  0  0  0  0
   14.9755    7.9070    3.5853 C   0  0  0  0  0  0  0  0  0  0  0  0
   14.8069    9.2352    3.5852 F   0  0  0  0  0  0  0  0  0  0  0  0
   13.8687    7.0749    3.4732 C   0  0  0  0  0  0  0  0  0  0  0  0
   14.0441    5.6876    3.4746 C   0  0  0  0  0  0  0  0  0  0  0  0
   14.5826    2.7192    3.5140 N   0  0  0  0  0  0  0  0  0  0  0  0
   10.6022    0.4076    3.1093 N   0  0  0  0  0  0  0  0  0  0  0  0
    9.2436    0.1530    3.0062 O   0  0  0  0  0  0  0  0  0  0  0  0
    5.5207   -2.6740    0.2190 C   0  0  0  0  0  0  0  0  0  0  0  0
    4.2492   -3.6408   -3.5080 H   0  0  0  0  0  0  0  0  0  0  0  0
    5.6708   -3.8745   -2.4782 H   0  0  0  0  0  0  0  0  0  0  0  0
    4.9186   -2.2457   -2.6476 H   0  0  0  0  0  0  0  0  0  0  0  0
    2.4291   -3.9782    0.8447 H   0  0  0  0  0  0  0  0  0  0  0  0
    3.1071   -3.4406    3.1560 H   0  0  0  0  0  0  0  0  0  0  0  0
    5.2840   -2.4483    3.6186 H   0  0  0  0  0  0  0  0  0  0  0  0
    7.5755   -2.5885    3.5686 H   0  0  0  0  0  0  0  0  0  0  0  0
    6.9977   -0.8896    3.4968 H   0  0  0  0  0  0  0  0  0  0  0  0
   10.4214   -2.9006    3.0549 H   0  0  0  0  0  0  0  0  0  0  0  0
   12.8700    1.1053    3.3568 H   0  0  0  0  0  0  0  0  0  0  0  0
   15.2198   -0.3467    2.6709 H   0  0  0  0  0  0  0  0  0  0  0  0
   15.0557   -0.3455    4.4381 H   0  0  0  0  0  0  0  0  0  0  0  0
   17.4426    5.5988    3.7875 H   0  0  0  0  0  0  0  0  0  0  0  0
   17.1068    8.0465    3.7829 H   0  0  0  0  0  0  0  0  0  0  0  0
   12.8775    7.5084    3.3860 H   0  0  0  0  0  0  0  0  0  0  0  0
   13.1706    5.0437    3.3863 H   0  0  0  0  0  0  0  0  0  0  0  0
    6.2125   -2.4449   -0.5864 H   0  0  0  0  0  0  0  0  0  0  0  0
  1  2  1  0  0  0  0
  1 33  1  0  0  0  0
  1 34  1  0  0  0  0
  1 35  1  0  0  0  0
  2  3  2  0  0  0  0
  2  4  1  0  0  0  0
  4  5  2  0  0  0  0
  4 32  1  0  0  0  0
  5  6  1  0  0  0  0
  5 36  1  0  0  0  0
  6  7  2  0  0  0  0
  6 37  1  0  0  0  0
  7  8  1  0  0  0  0
  7 38  1  0  0  0  0
  8  9  1  0  0  0  0
  8 32  2  0  0  0  0
  9 10  1  0  0  0  0
 10 11  1  0  0  0  0
 10 39  1  0  0  0  0
 10 40  1  0  0  0  0
 11 12  2  0  0  0  0
 11 31  1  0  0  0  0
 12 13  1  0  0  0  0
 12 41  1  0  0  0  0
 13 14  1  0  0  0  0
 13 30  2  0  0  0  0
 14 15  2  0  0  0  0
 14 16  1  0  0  0  0
 16 17  1  0  0  0  0
 16 42  1  0  0  0  0
 17 18  1  0  0  0  0
 17 43  1  0  0  0  0
 17 44  1  0  0  0  0
 18 19  2  0  0  0  0
 18 29  1  0  0  0  0
 19 20  1  0  0  0  0
 20 21  1  0  0  0  0
 21 22  1  0  0  0  0
 21 29  2  0  0  0  0
 22 23  2  0  0  0  0
 22 28  1  0  0  0  0
 23 24  1  0  0  0  0
 23 45  1  0  0  0  0
 24 25  2  0  0  0  0
 24 46  1  0  0  0  0
 25 26  1  0  0  0  0
 25 27  1  0  0  0  0
 27 28  2  0  0  0  0
 27 47  1  0  0  0  0
 28 48  1  0  0  0  0
 30 31  1  0  0  0  0
 32 49  1  0  0  0  0
M  END
$$$$
