
 OpenBabel01122422353D

 41 44  0  0  0  0  0  0  0  0999 V2000
    2.9789   -0.3818    1.0028 O   0  0  0  0  0  0  0  0  0  0  0  0
    2.3390    0.0360    0.0460 C   0  0  0  0  0  0  0  0  0  0  0  0
    0.9723    0.2292   -0.0339 N   0  0  0  0  0  0  0  0  0  0  0  0
    0.0991    0.0609    1.0476 C   0  0  0  0  0  0  0  0  0  0  0  0
   -1.2662   -0.0356    0.7817 C   0  0  0  0  0  0  0  0  0  0  0  0
   -2.1472   -0.2546    1.8424 C   0  0  0  0  0  0  0  0  0  0  0  0
   -1.6314   -0.3310    3.1317 C   0  0  0  0  0  0  0  0  0  0  0  0
   -2.4694   -0.5535    4.3160 C   0  0  0  0  0  0  0  0  0  0  0  0
   -3.6753   -0.7449    4.2156 O   0  0  0  0  0  0  0  0  0  0  0  0
   -1.8199   -0.5280    5.5270 N   0  0  0  0  0  0  0  0  0  0  0  0
   -0.4799   -0.3374    5.7138 C   0  0  0  0  0  0  0  0  0  0  0  0
    0.0129   -0.3004    6.8368 O   0  0  0  0  0  0  0  0  0  0  0  0
    0.2667   -0.1892    4.5904 N   0  0  0  0  0  0  0  0  0  0  0  0
   -0.2707   -0.1785    3.3124 C   0  0  0  0  0  0  0  0  0  0  0  0
    0.5903    0.0078    2.2993 N   0  0  0  0  0  0  0  0  0  0  0  0
    3.0669    0.2741   -1.2248 C   0  0  0  0  0  0  0  0  0  0  0  0
    2.7897    1.3924   -2.0285 C   0  0  0  0  0  0  0  0  0  0  0  0
    3.4448    1.5842   -3.2585 C   0  0  0  0  0  0  0  0  0  0  0  0
    3.1577    2.7524   -4.1316 C   0  0  0  0  0  0  0  0  0  0  0  0
    4.1473    3.3353   -4.9452 C   0  0  0  0  0  0  0  0  0  0  0  0
    5.4133    2.8901   -4.9068 F   0  0  0  0  0  0  0  0  0  0  0  0
    3.8792    4.3931   -5.8176 C   0  0  0  0  0  0  0  0  0  0  0  0
    2.5997    4.9292   -5.8878 C   0  0  0  0  0  0  0  0  0  0  0  0
    1.6005    4.4056   -5.0748 C   0  0  0  0  0  0  0  0  0  0  0  0
    1.8800    3.3349   -4.2189 C   0  0  0  0  0  0  0  0  0  0  0  0
    0.8601    2.8590   -3.4855 F   0  0  0  0  0  0  0  0  0  0  0  0
    4.3910    0.6078   -3.6356 C   0  0  0  0  0  0  0  0  0  0  0  0
    4.7042   -0.4806   -2.8170 C   0  0  0  0  0  0  0  0  0  0  0  0
    4.0456   -0.6452   -1.6050 C   0  0  0  0  0  0  0  0  0  0  0  0
    0.5632    0.3745   -0.9461 H   0  0  0  0  0  0  0  0  0  0  0  0
   -1.6515    0.0258   -0.2310 H   0  0  0  0  0  0  0  0  0  0  0  0
   -3.2143   -0.3635    1.6651 H   0  0  0  0  0  0  0  0  0  0  0  0
   -2.3781   -0.6615    6.3569 H   0  0  0  0  0  0  0  0  0  0  0  0
    1.2670   -0.0557    4.6704 H   0  0  0  0  0  0  0  0  0  0  0  0
    2.0746    2.1288   -1.6673 H   0  0  0  0  0  0  0  0  0  0  0  0
    4.6814    4.7862   -6.4358 H   0  0  0  0  0  0  0  0  0  0  0  0
    2.3850    5.7490   -6.5682 H   0  0  0  0  0  0  0  0  0  0  0  0
    0.5950    4.8157   -5.1050 H   0  0  0  0  0  0  0  0  0  0  0  0
    4.9134    0.6817   -4.5887 H   0  0  0  0  0  0  0  0  0  0  0  0
    5.4604   -1.1959   -3.1275 H   0  0  0  0  0  0  0  0  0  0  0  0
    4.2867   -1.4899   -0.9626 H   0  0  0  0  0  0  0  0  0  0  0  0
  1  2  2  0  0  0  0
  2  3  1  0  0  0  0
  2 16  1  0  0  0  0
  3  4  1  0  0  0  0
  3 30  1  0  0  0  0
  4  5  2  0  0  0  0
  4 15  1  0  0  0  0
  5  6  1  0  0  0  0
  5 31  1  0  0  0  0
  6  7  2  0  0  0  0
  6 32  1  0  0  0  0
  7  8  1  0  0  0  0
  7 14  1  0  0  0  0
  8  9  2  0  0  0  0
  8 10  1  0  0  0  0
 10 11  1  0  0  0  0
 10 33  1  0  0  0  0
 11 12  2  0  0  0  0
 11 13  1  0  0  0  0
 13 14  1  0  0  0  0
 13 34  1  0  0  0  0
 14 15  2  0  0  0  0
 16 17  2  0  0  0  0
 16 29  1  0  0  0  0
 17 18  1  0  0  0  0
 17 35  1  0  0  0  0
 18 19  1  0  0  0  0
 18 27  2  0  0  0  0
 19 20  2  0  0  0  0
 19 25  1  0  0  0  0
 20 21  1  0  0  0  0
 20 22  1  0  0  0  0
 22 23  2  0  0  0  0
 22 36  1  0  0  0  0
 23 24  1  0  0  0  0
 23 37  1  0  0  0  0
 24 25  2  0  0  0  0
 24 38  1  0  0  0  0
 25 26  1  0  0  0  0
 27 28  1  0  0  0  0
 27 39  1  0  0  0  0
 28 29  2  0  0  0  0
 28 40  1  0  0  0  0
 29 41  1  0  0  0  0
M  END
$$$$
