
 OpenBabel01122422363D

 55 58  0  0  1  0  0  0  0  0999 V2000
   -0.4587   -7.0242    2.9567 N   0  0  0  0  0  0  0  0  0  0  0  0
    0.4065   -6.2619    2.7964 C   0  0  0  0  0  0  0  0  0  0  0  0
    1.4564   -5.3179    2.5839 C   0  0  0  0  0  0  0  0  0  0  0  0
    2.7067   -5.4921    3.1955 C   0  0  0  0  0  0  0  0  0  0  0  0
    3.7284   -4.5599    2.9779 C   0  0  0  0  0  0  0  0  0  0  0  0
    3.4952   -3.4581    2.1495 C   0  0  0  0  0  0  0  0  0  0  0  0
    4.5386   -2.5791    1.9284 O   0  0  0  0  0  0  0  0  0  0  0  0
    4.5813   -1.9280    0.7078 C   0  0  0  0  0  0  0  0  0  0  0  0
    4.2783   -2.5764   -0.4979 C   0  0  0  0  0  0  0  0  0  0  0  0
    4.3120   -1.8806   -1.7084 C   0  0  0  0  0  0  0  0  0  0  0  0
    3.9876   -2.5539   -2.9982 C   0  0  0  0  0  0  0  0  0  0  0  0
    3.5384   -1.9064   -3.9391 O   0  0  0  0  0  0  0  0  0  0  0  0
    4.2601   -3.9139   -3.0763 N   0  0  0  0  0  0  0  0  0  0  0  0
    4.0525   -4.6645   -4.3111 C   0  0  3  0  0  0  0  0  0  0  0  0
    2.6591   -5.2988   -4.3520 C   0  0  0  0  0  0  0  0  0  0  0  0
    2.8528   -6.6314   -3.6424 C   0  0  0  0  0  0  0  0  0  0  0  0
    4.1876   -7.0425   -4.0411 N   0  0  0  0  0  0  0  0  0  0  0  0
    4.6462   -8.3202   -4.2942 C   0  0  0  0  0  0  0  0  0  0  0  0
    5.8061   -8.5139   -4.6695 O   0  0  0  0  0  0  0  0  0  0  0  0
    3.6775   -9.4889   -4.1464 C   0  0  0  0  0  0  0  0  0  0  0  0
    2.9216   -9.8632   -5.4096 C   0  0  0  0  0  0  0  0  0  0  0  0
    3.4536   -9.6766   -6.6950 C   0  0  0  0  0  0  0  0  0  0  0  0
    2.7289  -10.0504   -7.8323 C   0  0  0  0  0  0  0  0  0  0  0  0
    1.4782  -10.6481   -7.7025 C   0  0  0  0  0  0  0  0  0  0  0  0
    0.9538  -10.8794   -6.4343 C   0  0  0  0  0  0  0  0  0  0  0  0
    1.6697  -10.4917   -5.2975 C   0  0  0  0  0  0  0  0  0  0  0  0
    4.9788   -5.8875   -4.4556 C   0  0  0  0  0  0  0  0  0  0  0  0
    4.6513   -0.5210   -1.7047 C   0  0  0  0  0  0  0  0  0  0  0  0
    4.9857    0.1202   -0.5050 C   0  0  0  0  0  0  0  0  0  0  0  0
    4.9618   -0.5865    0.7010 C   0  0  0  0  0  0  0  0  0  0  0  0
    2.2278   -3.2674    1.5886 C   0  0  0  0  0  0  0  0  0  0  0  0
    1.2238   -4.2105    1.7716 C   0  0  0  0  0  0  0  0  0  0  0  0
    2.8851   -6.3535    3.8340 H   0  0  0  0  0  0  0  0  0  0  0  0
    4.6974   -4.7053    3.4529 H   0  0  0  0  0  0  0  0  0  0  0  0
    3.9588   -3.6124   -0.4791 H   0  0  0  0  0  0  0  0  0  0  0  0
    4.6600   -4.3969   -2.2841 H   0  0  0  0  0  0  0  0  0  0  0  0
    4.1983   -3.9769   -5.1501 H   0  0  0  0  0  0  0  0  0  0  0  0
    2.3870   -5.4943   -5.3968 H   0  0  0  0  0  0  0  0  0  0  0  0
    1.8732   -4.6904   -3.8970 H   0  0  0  0  0  0  0  0  0  0  0  0
    2.0838   -7.3599   -3.9026 H   0  0  0  0  0  0  0  0  0  0  0  0
    2.8671   -6.4984   -2.5536 H   0  0  0  0  0  0  0  0  0  0  0  0
    2.9738   -9.2729   -3.3357 H   0  0  0  0  0  0  0  0  0  0  0  0
    4.2556  -10.3614   -3.8163 H   0  0  0  0  0  0  0  0  0  0  0  0
    4.4428   -9.2437   -6.8340 H   0  0  0  0  0  0  0  0  0  0  0  0
    3.1473   -9.8806   -8.8218 H   0  0  0  0  0  0  0  0  0  0  0  0
    0.9194  -10.9434   -8.5877 H   0  0  0  0  0  0  0  0  0  0  0  0
   -0.0127  -11.3663   -6.3289 H   0  0  0  0  0  0  0  0  0  0  0  0
    1.2413  -10.6919   -4.3178 H   0  0  0  0  0  0  0  0  0  0  0  0
    5.2479   -6.0371   -5.5079 H   0  0  0  0  0  0  0  0  0  0  0  0
    5.8967   -5.8263   -3.8619 H   0  0  0  0  0  0  0  0  0  0  0  0
    4.6730    0.0391   -2.6379 H   0  0  0  0  0  0  0  0  0  0  0  0
    5.2675    1.1714   -0.5145 H   0  0  0  0  0  0  0  0  0  0  0  0
    5.2207   -0.0823    1.6292 H   0  0  0  0  0  0  0  0  0  0  0  0
    2.0151   -2.3968    0.9737 H   0  0  0  0  0  0  0  0  0  0  0  0
    0.2650   -4.0645    1.2767 H   0  0  0  0  0  0  0  0  0  0  0  0
  1  2  3  0  0  0  0
  2  3  1  0  0  0  0
  3  4  2  0  0  0  0
  3 32  1  0  0  0  0
  4  5  1  0  0  0  0
  4 33  1  0  0  0  0
  5  6  2  0  0  0  0
  5 34  1  0  0  0  0
  6  7  1  0  0  0  0
  6 31  1  0  0  0  0
  7  8  1  0  0  0  0
  8  9  2  0  0  0  0
  8 30  1  0  0  0  0
  9 10  1  0  0  0  0
  9 35  1  0  0  0  0
 10 11  1  0  0  0  0
 10 28  2  0  0  0  0
 11 12  2  0  0  0  0
 11 13  1  0  0  0  0
 13 14  1  0  0  0  0
 13 36  1  0  0  0  0
 14 15  1  0  0  0  0
 14 27  1  0  0  0  0
 14 37  1  0  0  0  0
 15 16  1  0  0  0  0
 15 38  1  0  0  0  0
 15 39  1  0  0  0  0
 16 17  1  0  0  0  0
 16 40  1  0  0  0  0
 16 41  1  0  0  0  0
 17 18  1  0  0  0  0
 17 27  1  0  0  0  0
 18 19  2  0  0  0  0
 18 20  1  0  0  0  0
 20 21  1  0  0  0  0
 20 42  1  0  0  0  0
 20 43  1  0  0  0  0
 21 22  2  0  0  0  0
 21 26  1  0  0  0  0
 22 23  1  0  0  0  0
 22 44  1  0  0  0  0
 23 24  2  0  0  0  0
 23 45  1  0  0  0  0
 24 25  1  0  0  0  0
 24 46  1  0  0  0  0
 25 26  2  0  0  0  0
 25 47  1  0  0  0  0
 26 48  1  0  0  0  0
 27 49  1  0  0  0  0
 27 50  1  0  0  0  0
 28 29  1  0  0  0  0
 28 51  1  0  0  0  0
 29 30  2  0  0  0  0
 29 52  1  0  0  0  0
 30 53  1  0  0  0  0
 31 32  2  0  0  0  0
 31 54  1  0  0  0  0
 32 55  1  0  0  0  0
M  END
$$$$
