
 OpenBabel01122422363D

 44 47  0  0  0  0  0  0  0  0999 V2000
   -2.0596   -0.0181   -0.0011 C   0  0  0  0  0  0  0  0  0  0  0  0
   -0.6168   -0.1122    0.0442 N   0  0  0  0  0  0  0  0  0  0  0  0
    0.0938    1.0347    0.0206 N   0  0  0  0  0  0  0  0  0  0  0  0
    1.3778    0.6552   -0.0154 C   0  0  0  0  0  0  0  0  0  0  0  0
    2.4785    1.6170   -0.0736 C   0  0  0  0  0  0  0  0  0  0  0  0
    2.2272    2.9975   -0.0567 C   0  0  0  0  0  0  0  0  0  0  0  0
    3.2802    3.9186   -0.1052 C   0  0  0  0  0  0  0  0  0  0  0  0
    4.6015    3.4729   -0.1712 C   0  0  0  0  0  0  0  0  0  0  0  0
    5.6836    4.4096   -0.2213 C   0  0  0  0  0  0  0  0  0  0  0  0
    6.5660    5.1598   -0.2595 N   0  0  0  0  0  0  0  0  0  0  0  0
    4.8654    2.0992   -0.1918 C   0  0  0  0  0  0  0  0  0  0  0  0
    3.8117    1.1820   -0.1423 C   0  0  0  0  0  0  0  0  0  0  0  0
    1.4596   -0.7610    0.0027 C   0  0  0  0  0  0  0  0  0  0  0  0
    0.1645   -1.2470    0.0873 C   0  0  0  0  0  0  0  0  0  0  0  0
   -0.3269   -2.6128    0.1687 C   0  0  0  0  0  0  0  0  0  0  0  0
   -1.5263   -2.8596    0.1265 O   0  0  0  0  0  0  0  0  0  0  0  0
    0.6815   -3.5483    0.3459 N   0  0  0  0  0  0  0  0  0  0  0  0
    0.4895   -4.9069    0.4896 C   0  0  0  0  0  0  0  0  0  0  0  0
   -0.6516   -5.5475    0.2624 N   0  0  0  0  0  0  0  0  0  0  0  0
   -0.4392   -6.8264    0.6398 N   0  0  0  0  0  0  0  0  0  0  0  0
   -1.4855   -7.7877    0.5891 C   0  0  0  0  0  0  0  0  0  0  0  0
   -2.7298   -7.4329    0.0388 C   0  0  0  0  0  0  0  0  0  0  0  0
   -3.7530   -8.3804   -0.0443 C   0  0  0  0  0  0  0  0  0  0  0  0
   -3.5377   -9.6664    0.4362 C   0  0  0  0  0  0  0  0  0  0  0  0
   -4.5155  -10.5774    0.3519 F   0  0  0  0  0  0  0  0  0  0  0  0
   -2.3204  -10.0249    1.0024 C   0  0  0  0  0  0  0  0  0  0  0  0
   -1.2882   -9.0883    1.0771 C   0  0  0  0  0  0  0  0  0  0  0  0
    0.8624   -7.0130    1.0495 C   0  0  0  0  0  0  0  0  0  0  0  0
    1.4981   -5.8026    0.9099 C   0  0  0  0  0  0  0  0  0  0  0  0
   -2.3493    1.0367    0.0390 H   0  0  0  0  0  0  0  0  0  0  0  0
   -2.4824   -0.5382    0.8605 H   0  0  0  0  0  0  0  0  0  0  0  0
   -2.4051   -0.4504   -0.9429 H   0  0  0  0  0  0  0  0  0  0  0  0
    1.2032    3.3656   -0.0034 H   0  0  0  0  0  0  0  0  0  0  0  0
    3.0554    4.9836   -0.0905 H   0  0  0  0  0  0  0  0  0  0  0  0
    5.8888    1.7328   -0.2475 H   0  0  0  0  0  0  0  0  0  0  0  0
    4.0591    0.1250   -0.1600 H   0  0  0  0  0  0  0  0  0  0  0  0
    2.3618   -1.3474   -0.0351 H   0  0  0  0  0  0  0  0  0  0  0  0
    1.6199   -3.2306    0.5151 H   0  0  0  0  0  0  0  0  0  0  0  0
   -2.9114   -6.4264   -0.3386 H   0  0  0  0  0  0  0  0  0  0  0  0
   -4.7118   -8.1228   -0.4832 H   0  0  0  0  0  0  0  0  0  0  0  0
   -2.1794  -11.0325    1.3803 H   0  0  0  0  0  0  0  0  0  0  0  0
   -0.3523   -9.4023    1.5272 H   0  0  0  0  0  0  0  0  0  0  0  0
    1.2289   -7.9648    1.4006 H   0  0  0  0  0  0  0  0  0  0  0  0
    2.5324   -5.5988    1.1473 H   0  0  0  0  0  0  0  0  0  0  0  0
  1  2  1  0  0  0  0
  1 30  1  0  0  0  0
  1 31  1  0  0  0  0
  1 32  1  0  0  0  0
  2  3  1  0  0  0  0
  2 14  1  0  0  0  0
  3  4  2  0  0  0  0
  4  5  1  0  0  0  0
  4 13  1  0  0  0  0
  5  6  2  0  0  0  0
  5 12  1  0  0  0  0
  6  7  1  0  0  0  0
  6 33  1  0  0  0  0
  7  8  2  0  0  0  0
  7 34  1  0  0  0  0
  8  9  1  0  0  0  0
  8 11  1  0  0  0  0
  9 10  3  0  0  0  0
 11 12  2  0  0  0  0
 11 35  1  0  0  0  0
 12 36  1  0  0  0  0
 13 14  2  0  0  0  0
 13 37  1  0  0  0  0
 14 15  1  0  0  0  0
 15 16  2  0  0  0  0
 15 17  1  0  0  0  0
 17 18  1  0  0  0  0
 17 38  1  0  0  0  0
 18 19  2  0  0  0  0
 18 29  1  0  0  0  0
 19 20  1  0  0  0  0
 20 21  1  0  0  0  0
 20 28  1  0  0  0  0
 21 22  2  0  0  0  0
 21 27  1  0  0  0  0
 22 23  1  0  0  0  0
 22 39  1  0  0  0  0
 23 24  2  0  0  0  0
 23 40  1  0  0  0  0
 24 25  1  0  0  0  0
 24 26  1  0  0  0  0
 26 27  2  0  0  0  0
 26 41  1  0  0  0  0
 27 42  1  0  0  0  0
 28 29  2  0  0  0  0
 28 43  1  0  0  0  0
 29 44  1  0  0  0  0
M  END
$$$$
