
 OpenBabel01122422363D

 41 44  0  0  0  0  0  0  0  0999 V2000
    3.2642    1.1128   -0.6261 N   0  0  0  0  0  0  0  0  0  0  0  0
    2.5281    0.2618    0.1533 C   0  0  0  0  0  0  0  0  0  0  0  0
    1.3328    0.1203   -0.0642 O   0  0  0  0  0  0  0  0  0  0  0  0
    3.2415   -0.4520    1.2518 C   0  0  0  0  0  0  0  0  0  0  0  0
    4.3032    0.2078    1.8928 C   0  0  0  0  0  0  0  0  0  0  0  0
    4.9300   -0.4242    2.9470 C   0  0  0  0  0  0  0  0  0  0  0  0
    6.0015    0.2114    3.5853 N   0  0  0  0  0  0  0  0  0  0  0  0
    6.6621   -0.3174    4.6824 C   0  0  0  0  0  0  0  0  0  0  0  0
    6.4393   -1.4007    5.2105 O   0  0  0  0  0  0  0  0  0  0  0  0
    7.6893    0.5742    5.2324 C   0  0  0  0  0  0  0  0  0  0  0  0
    8.2888    1.5035    4.4645 N   0  0  0  0  0  0  0  0  0  0  0  0
    9.2638    2.0745    5.2631 O   0  0  0  0  0  0  0  0  0  0  0  0
    9.2104    1.5350    6.5047 C   0  0  0  0  0  0  0  0  0  0  0  0
    8.2061    0.5987    6.5670 C   0  0  0  0  0  0  0  0  0  0  0  0
    7.8292   -0.1452    7.7615 C   0  0  0  0  0  0  0  0  0  0  0  0
    6.4796   -0.4555    8.0014 C   0  0  0  0  0  0  0  0  0  0  0  0
    6.1099   -1.2507    9.0905 C   0  0  0  0  0  0  0  0  0  0  0  0
    7.0846   -1.7103    9.9652 C   0  0  0  0  0  0  0  0  0  0  0  0
    6.7305   -2.4881   10.9952 F   0  0  0  0  0  0  0  0  0  0  0  0
    8.4185   -1.3773    9.7834 C   0  0  0  0  0  0  0  0  0  0  0  0
    8.7817   -0.5990    8.6863 C   0  0  0  0  0  0  0  0  0  0  0  0
   10.0816   -0.3052    8.5270 F   0  0  0  0  0  0  0  0  0  0  0  0
    4.5309   -1.6243    3.3822 N   0  0  0  0  0  0  0  0  0  0  0  0
    3.5243   -2.2669    2.7860 C   0  0  0  0  0  0  0  0  0  0  0  0
    3.1815   -3.5101    3.2983 C   0  0  0  0  0  0  0  0  0  0  0  0
    2.1642   -4.2804    2.7370 C   0  0  0  0  0  0  0  0  0  0  0  0
    1.4781   -3.7967    1.6346 C   0  0  0  0  0  0  0  0  0  0  0  0
    1.8032   -2.5454    1.1124 C   0  0  0  0  0  0  0  0  0  0  0  0
    2.8279   -1.7420    1.6849 C   0  0  0  0  0  0  0  0  0  0  0  0
    2.7768    1.5330   -1.4088 H   0  0  0  0  0  0  0  0  0  0  0  0
    4.2729    1.1417   -0.6328 H   0  0  0  0  0  0  0  0  0  0  0  0
    4.6045    1.2048    1.5949 H   0  0  0  0  0  0  0  0  0  0  0  0
    6.3180    1.1132    3.2534 H   0  0  0  0  0  0  0  0  0  0  0  0
    9.9320    1.9223    7.2104 H   0  0  0  0  0  0  0  0  0  0  0  0
    5.6934   -0.1143    7.3308 H   0  0  0  0  0  0  0  0  0  0  0  0
    5.0710   -1.5263    9.2428 H   0  0  0  0  0  0  0  0  0  0  0  0
    9.1704   -1.7344   10.4767 H   0  0  0  0  0  0  0  0  0  0  0  0
    3.7280   -3.8881    4.1597 H   0  0  0  0  0  0  0  0  0  0  0  0
    1.9219   -5.2500    3.1628 H   0  0  0  0  0  0  0  0  0  0  0  0
    0.6883   -4.3920    1.1808 H   0  0  0  0  0  0  0  0  0  0  0  0
    1.2451   -2.2013    0.2445 H   0  0  0  0  0  0  0  0  0  0  0  0
  1  2  1  0  0  0  0
  1 30  1  0  0  0  0
  1 31  1  0  0  0  0
  2  3  2  0  0  0  0
  2  4  1  0  0  0  0
  4  5  2  0  0  0  0
  4 29  1  0  0  0  0
  5  6  1  0  0  0  0
  5 32  1  0  0  0  0
  6  7  1  0  0  0  0
  6 23  2  0  0  0  0
  7  8  1  0  0  0  0
  7 33  1  0  0  0  0
  8  9  2  0  0  0  0
  8 10  1  0  0  0  0
 10 11  2  0  0  0  0
 10 14  1  0  0  0  0
 11 12  1  0  0  0  0
 12 13  1  0  0  0  0
 13 14  2  0  0  0  0
 13 34  1  0  0  0  0
 14 15  1  0  0  0  0
 15 16  2  0  0  0  0
 15 21  1  0  0  0  0
 16 17  1  0  0  0  0
 16 35  1  0  0  0  0
 17 18  2  0  0  0  0
 17 36  1  0  0  0  0
 18 19  1  0  0  0  0
 18 20  1  0  0  0  0
 20 21  2  0  0  0  0
 20 37  1  0  0  0  0
 21 22  1  0  0  0  0
 23 24  1  0  0  0  0
 24 25  2  0  0  0  0
 24 29  1  0  0  0  0
 25 26  1  0  0  0  0
 25 38  1  0  0  0  0
 26 27  2  0  0  0  0
 26 39  1  0  0  0  0
 27 28  1  0  0  0  0
 27 40  1  0  0  0  0
 28 29  2  0  0  0  0
 28 41  1  0  0  0  0
M  END
$$$$
