
 OpenBabel01122422363D

 47 50  0  0  0  0  0  0  0  0999 V2000
    2.6179    1.0995    1.3084 C   0  0  0  0  0  0  0  0  0  0  0  0
    3.2188    0.1368    0.4460 O   0  0  0  0  0  0  0  0  0  0  0  0
    3.4419    0.5211   -0.8512 C   0  0  0  0  0  0  0  0  0  0  0  0
    3.0115    1.7431   -1.3910 C   0  0  0  0  0  0  0  0  0  0  0  0
    3.2638    2.0672   -2.7257 C   0  0  0  0  0  0  0  0  0  0  0  0
    3.9537    1.1769   -3.5396 C   0  0  0  0  0  0  0  0  0  0  0  0
    4.3857   -0.0438   -3.0198 C   0  0  0  0  0  0  0  0  0  0  0  0
    4.1309   -0.3945   -1.6767 C   0  0  0  0  0  0  0  0  0  0  0  0
    4.5082   -1.7579   -1.2529 C   0  0  0  0  0  0  0  0  0  0  0  0
    3.6262   -2.7592   -1.3448 C   0  0  0  0  0  0  0  0  0  0  0  0
    4.0304   -4.1086   -1.0493 C   0  0  0  0  0  0  0  0  0  0  0  0
    5.2877   -4.4130   -0.6702 C   0  0  0  0  0  0  0  0  0  0  0  0
    5.5529   -5.8678   -0.4522 C   0  0  0  0  0  0  0  0  0  0  0  0
    4.6989   -6.7062   -0.6920 O   0  0  0  0  0  0  0  0  0  0  0  0
    6.7989   -6.2333   -0.0036 N   0  0  0  0  0  0  0  0  0  0  0  0
    7.0729   -7.6511    0.1650 C   0  0  0  0  0  0  0  0  0  0  0  0
    8.3758   -7.8671    0.8247 C   0  0  0  0  0  0  0  0  0  0  0  0
    8.5418   -8.2521    2.1472 C   0  0  0  0  0  0  0  0  0  0  0  0
    9.8704   -8.5320    2.2955 N   0  0  0  0  0  0  0  0  0  0  0  0
   10.5719   -7.8172    1.3588 C   0  0  0  0  0  0  0  0  0  0  0  0
   11.8845   -7.3399    1.3444 C   0  0  0  0  0  0  0  0  0  0  0  0
   12.3253   -6.7729    0.1477 C   0  0  0  0  0  0  0  0  0  0  0  0
   11.5304   -6.8277   -0.9938 C   0  0  0  0  0  0  0  0  0  0  0  0
   12.0244   -6.3664   -2.1511 F   0  0  0  0  0  0  0  0  0  0  0  0
   10.2148   -7.2937   -0.9585 C   0  0  0  0  0  0  0  0  0  0  0  0
    9.6859   -7.6709    0.2897 C   0  0  0  0  0  0  0  0  0  0  0  0
    6.2628   -3.2939   -0.5297 C   0  0  0  0  0  0  0  0  0  0  0  0
    7.4202   -3.4893   -0.1616 O   0  0  0  0  0  0  0  0  0  0  0  0
    5.7982   -2.0292   -0.8509 N   0  0  0  0  0  0  0  0  0  0  0  0
    2.5793    0.6758    2.3168 H   0  0  0  0  0  0  0  0  0  0  0  0
    1.5893    1.3150    0.9992 H   0  0  0  0  0  0  0  0  0  0  0  0
    3.2145    2.0171    1.3586 H   0  0  0  0  0  0  0  0  0  0  0  0
    2.4601    2.4681   -0.8009 H   0  0  0  0  0  0  0  0  0  0  0  0
    2.9096    3.0118   -3.1306 H   0  0  0  0  0  0  0  0  0  0  0  0
    4.1417    1.4241   -4.5810 H   0  0  0  0  0  0  0  0  0  0  0  0
    4.8976   -0.7438   -3.6769 H   0  0  0  0  0  0  0  0  0  0  0  0
    2.6003   -2.6075   -1.6819 H   0  0  0  0  0  0  0  0  0  0  0  0
    3.2745   -4.8801   -1.1787 H   0  0  0  0  0  0  0  0  0  0  0  0
    7.5175   -5.5461    0.1592 H   0  0  0  0  0  0  0  0  0  0  0  0
    7.0446   -8.1368   -0.8277 H   0  0  0  0  0  0  0  0  0  0  0  0
    6.2646   -8.0858    0.7617 H   0  0  0  0  0  0  0  0  0  0  0  0
    7.8314   -8.4379    2.9395 H   0  0  0  0  0  0  0  0  0  0  0  0
   10.2667   -9.1972    2.9479 H   0  0  0  0  0  0  0  0  0  0  0  0
   12.5016   -7.3374    2.2366 H   0  0  0  0  0  0  0  0  0  0  0  0
   13.2984   -6.2945    0.0952 H   0  0  0  0  0  0  0  0  0  0  0  0
    9.6104   -7.2873   -1.8578 H   0  0  0  0  0  0  0  0  0  0  0  0
    6.4613   -1.2696   -0.7640 H   0  0  0  0  0  0  0  0  0  0  0  0
  1  2  1  0  0  0  0
  1 30  1  0  0  0  0
  1 31  1  0  0  0  0
  1 32  1  0  0  0  0
  2  3  1  0  0  0  0
  3  4  2  0  0  0  0
  3  8  1  0  0  0  0
  4  5  1  0  0  0  0
  4 33  1  0  0  0  0
  5  6  2  0  0  0  0
  5 34  1  0  0  0  0
  6  7  1  0  0  0  0
  6 35  1  0  0  0  0
  7  8  2  0  0  0  0
  7 36  1  0  0  0  0
  8  9  1  0  0  0  0
  9 10  2  0  0  0  0
  9 29  1  0  0  0  0
 10 11  1  0  0  0  0
 10 37  1  0  0  0  0
 11 12  2  0  0  0  0
 11 38  1  0  0  0  0
 12 13  1  0  0  0  0
 12 27  1  0  0  0  0
 13 14  2  0  0  0  0
 13 15  1  0  0  0  0
 15 16  1  0  0  0  0
 15 39  1  0  0  0  0
 16 17  1  0  0  0  0
 16 40  1  0  0  0  0
 16 41  1  0  0  0  0
 17 18  2  0  0  0  0
 17 26  1  0  0  0  0
 18 19  1  0  0  0  0
 18 42  1  0  0  0  0
 19 20  1  0  0  0  0
 19 43  1  0  0  0  0
 20 21  2  0  0  0  0
 20 26  1  0  0  0  0
 21 22  1  0  0  0  0
 21 44  1  0  0  0  0
 22 23  2  0  0  0  0
 22 45  1  0  0  0  0
 23 24  1  0  0  0  0
 23 25  1  0  0  0  0
 25 26  2  0  0  0  0
 25 46  1  0  0  0  0
 27 28  2  0  0  0  0
 27 29  1  0  0  0  0
 29 47  1  0  0  0  0
M  END
$$$$
