
 OpenBabel01122422363D

 44 47  0  0  0  0  0  0  0  0999 V2000
    1.1701    0.5314    0.6385 C   0  0  0  0  0  0  0  0  0  0  0  0
    2.6004    0.5403    0.6462 O   0  0  0  0  0  0  0  0  0  0  0  0
    3.1532   -0.6521    0.9803 C   0  0  0  0  0  0  0  0  0  0  0  0
    2.5422   -1.6697    1.2655 O   0  0  0  0  0  0  0  0  0  0  0  0
    4.6416   -0.5770    0.9417 C   0  0  0  0  0  0  0  0  0  0  0  0
    5.3487    0.5954    0.6663 C   0  0  0  0  0  0  0  0  0  0  0  0
    6.7563    0.5841    0.6390 C   0  0  0  0  0  0  0  0  0  0  0  0
    7.4969   -0.5723    0.8736 C   0  0  0  0  0  0  0  0  0  0  0  0
    8.8515   -0.5522    0.8212 N   0  0  0  0  0  0  0  0  0  0  0  0
    9.4960   -1.7378    1.0297 C   0  0  0  0  0  0  0  0  0  0  0  0
   10.9924   -1.7753    0.9335 C   0  0  0  0  0  0  0  0  0  0  0  0
   11.5428   -2.8706    1.0124 O   0  0  0  0  0  0  0  0  0  0  0  0
   11.6115   -0.5475    0.8067 N   0  0  0  0  0  0  0  0  0  0  0  0
   12.9855   -0.3912    0.7649 C   0  0  0  0  0  0  0  0  0  0  0  0
   13.8570   -1.3849    0.5962 N   0  0  0  0  0  0  0  0  0  0  0  0
   15.0844   -0.8383    0.7182 N   0  0  0  0  0  0  0  0  0  0  0  0
   16.2570   -1.6488    0.6592 C   0  0  0  0  0  0  0  0  0  0  0  0
   16.1441   -3.0124    0.3288 C   0  0  0  0  0  0  0  0  0  0  0  0
   17.2835   -3.8215    0.2663 C   0  0  0  0  0  0  0  0  0  0  0  0
   18.5283   -3.2732    0.5482 C   0  0  0  0  0  0  0  0  0  0  0  0
   19.6202   -4.0478    0.4981 F   0  0  0  0  0  0  0  0  0  0  0  0
   18.6579   -1.9303    0.8839 C   0  0  0  0  0  0  0  0  0  0  0  0
   17.5243   -1.1118    0.9348 C   0  0  0  0  0  0  0  0  0  0  0  0
   14.9973    0.5242    0.9043 C   0  0  0  0  0  0  0  0  0  0  0  0
   13.6575    0.8415    0.8993 C   0  0  0  0  0  0  0  0  0  0  0  0
    8.8451   -2.9304    1.3243 C   0  0  0  0  0  0  0  0  0  0  0  0
    7.4626   -2.9329    1.3910 C   0  0  0  0  0  0  0  0  0  0  0  0
    6.7633   -1.7508    1.1555 C   0  0  0  0  0  0  0  0  0  0  0  0
    5.3590   -1.7482    1.1917 C   0  0  0  0  0  0  0  0  0  0  0  0
    0.8277    1.4953    0.2525 H   0  0  0  0  0  0  0  0  0  0  0  0
    0.7861    0.4082    1.6561 H   0  0  0  0  0  0  0  0  0  0  0  0
    0.7865   -0.2567   -0.0178 H   0  0  0  0  0  0  0  0  0  0  0  0
    4.8244    1.5274    0.4666 H   0  0  0  0  0  0  0  0  0  0  0  0
    7.2837    1.5099    0.4179 H   0  0  0  0  0  0  0  0  0  0  0  0
   11.0270    0.2774    0.8491 H   0  0  0  0  0  0  0  0  0  0  0  0
   15.1727   -3.4560    0.1095 H   0  0  0  0  0  0  0  0  0  0  0  0
   17.2040   -4.8713    0.0041 H   0  0  0  0  0  0  0  0  0  0  0  0
   19.6414   -1.5292    1.1091 H   0  0  0  0  0  0  0  0  0  0  0  0
   17.6632   -0.0720    1.2122 H   0  0  0  0  0  0  0  0  0  0  0  0
   15.8702    1.1469    1.0207 H   0  0  0  0  0  0  0  0  0  0  0  0
   13.2326    1.8252    1.0323 H   0  0  0  0  0  0  0  0  0  0  0  0
    9.4047   -3.8461    1.4943 H   0  0  0  0  0  0  0  0  0  0  0  0
    6.9438   -3.8620    1.6154 H   0  0  0  0  0  0  0  0  0  0  0  0
    4.8188   -2.6702    1.4068 H   0  0  0  0  0  0  0  0  0  0  0  0
  1  2  1  0  0  0  0
  1 30  1  0  0  0  0
  1 31  1  0  0  0  0
  1 32  1  0  0  0  0
  2  3  1  0  0  0  0
  3  4  2  0  0  0  0
  3  5  1  0  0  0  0
  5  6  2  0  0  0  0
  5 29  1  0  0  0  0
  6  7  1  0  0  0  0
  6 33  1  0  0  0  0
  7  8  2  0  0  0  0
  7 34  1  0  0  0  0
  8  9  1  0  0  0  0
  8 28  1  0  0  0  0
  9 10  2  0  0  0  0
 10 11  1  0  0  0  0
 10 26  1  0  0  0  0
 11 12  2  0  0  0  0
 11 13  1  0  0  0  0
 13 14  1  0  0  0  0
 13 35  1  0  0  0  0
 14 15  2  0  0  0  0
 14 25  1  0  0  0  0
 15 16  1  0  0  0  0
 16 17  1  0  0  0  0
 16 24  1  0  0  0  0
 17 18  2  0  0  0  0
 17 23  1  0  0  0  0
 18 19  1  0  0  0  0
 18 36  1  0  0  0  0
 19 20  2  0  0  0  0
 19 37  1  0  0  0  0
 20 21  1  0  0  0  0
 20 22  1  0  0  0  0
 22 23  2  0  0  0  0
 22 38  1  0  0  0  0
 23 39  1  0  0  0  0
 24 25  2  0  0  0  0
 24 40  1  0  0  0  0
 25 41  1  0  0  0  0
 26 27  2  0  0  0  0
 26 42  1  0  0  0  0
 27 28  1  0  0  0  0
 27 43  1  0  0  0  0
 28 29  2  0  0  0  0
 29 44  1  0  0  0  0
M  END
$$$$
