
 OpenBabel01122422363D

 46 49  0  0  0  0  0  0  0  0999 V2000
    5.8788   -2.1641   -5.8639 C   0  0  0  0  0  0  0  0  0  0  0  0
    5.9053   -1.5676   -4.5614 O   0  0  0  0  0  0  0  0  0  0  0  0
    6.1821   -0.2348   -4.5989 C   0  0  0  0  0  0  0  0  0  0  0  0
    6.3990    0.4092   -5.6027 O   0  0  0  0  0  0  0  0  0  0  0  0
    6.2744    0.3481   -3.2356 C   0  0  0  0  0  0  0  0  0  0  0  0
    7.0504    1.5104   -3.1261 C   0  0  0  0  0  0  0  0  0  0  0  0
    7.1295    2.1455   -1.9007 C   0  0  0  0  0  0  0  0  0  0  0  0
    6.5226    1.6953   -0.7877 N   0  0  0  0  0  0  0  0  0  0  0  0
    5.7703    0.5904   -0.9300 C   0  0  0  0  0  0  0  0  0  0  0  0
    5.2864    0.1399    0.2583 O   0  0  0  0  0  0  0  0  0  0  0  0
    5.5712   -0.1113   -2.1180 C   0  0  0  0  0  0  0  0  0  0  0  0
    4.6752   -1.2058   -2.1903 N   0  0  0  0  0  0  0  0  0  0  0  0
    3.4012   -1.1231   -1.6457 C   0  0  0  0  0  0  0  0  0  0  0  0
    2.8989   -0.1403   -1.1180 O   0  0  0  0  0  0  0  0  0  0  0  0
    2.5511   -2.2911   -1.9118 C   0  0  0  0  0  0  0  0  0  0  0  0
    3.0500   -3.5649   -1.6658 C   0  0  0  0  0  0  0  0  0  0  0  0
    2.3626   -4.6375   -2.1920 C   0  0  0  0  0  0  0  0  0  0  0  0
    1.2544   -4.4181   -3.0150 C   0  0  0  0  0  0  0  0  0  0  0  0
    0.9366   -5.3715   -4.0168 N   0  0  0  0  0  0  0  0  0  0  0  0
   -0.2463   -5.4261   -4.7248 C   0  0  0  0  0  0  0  0  0  0  0  0
    0.0531   -6.0375   -5.9197 C   0  0  0  0  0  0  0  0  0  0  0  0
    1.0644   -6.9592   -5.5732 C   0  0  0  0  0  0  0  0  0  0  0  0
    1.4929   -8.2121   -6.0402 C   0  0  0  0  0  0  0  0  0  0  0  0
    2.6729   -8.7520   -5.5197 C   0  0  0  0  0  0  0  0  0  0  0  0
    3.5169   -7.9696   -4.7409 C   0  0  0  0  0  0  0  0  0  0  0  0
    3.1229   -6.7036   -4.3182 C   0  0  0  0  0  0  0  0  0  0  0  0
    1.7912   -6.3315   -4.5611 C   0  0  0  0  0  0  0  0  0  0  0  0
    0.6205   -3.1705   -3.0328 C   0  0  0  0  0  0  0  0  0  0  0  0
    1.2820   -2.0916   -2.4662 C   0  0  0  0  0  0  0  0  0  0  0  0
    5.8337   -3.2496   -5.7441 H   0  0  0  0  0  0  0  0  0  0  0  0
    6.7849   -1.9210   -6.4301 H   0  0  0  0  0  0  0  0  0  0  0  0
    4.9875   -1.8333   -6.4064 H   0  0  0  0  0  0  0  0  0  0  0  0
    7.5680    1.9306   -3.9840 H   0  0  0  0  0  0  0  0  0  0  0  0
    7.7049    3.0586   -1.7798 H   0  0  0  0  0  0  0  0  0  0  0  0
    5.4912    0.9020    0.8260 H   0  0  0  0  0  0  0  0  0  0  0  0
    4.7835   -1.8381   -2.9799 H   0  0  0  0  0  0  0  0  0  0  0  0
    3.9882   -3.7103   -1.1413 H   0  0  0  0  0  0  0  0  0  0  0  0
    2.7543   -5.6320   -2.0237 H   0  0  0  0  0  0  0  0  0  0  0  0
   -1.1480   -4.9484   -4.3672 H   0  0  0  0  0  0  0  0  0  0  0  0
   -0.5228   -5.9877   -6.8321 H   0  0  0  0  0  0  0  0  0  0  0  0
    0.8725   -8.7888   -6.7188 H   0  0  0  0  0  0  0  0  0  0  0  0
    2.9540   -9.7735   -5.7563 H   0  0  0  0  0  0  0  0  0  0  0  0
    4.4822   -8.3530   -4.4216 H   0  0  0  0  0  0  0  0  0  0  0  0
    3.8131   -6.0870   -3.7554 H   0  0  0  0  0  0  0  0  0  0  0  0
   -0.2909   -2.9839   -3.5934 H   0  0  0  0  0  0  0  0  0  0  0  0
    0.8742   -1.0865   -2.5574 H   0  0  0  0  0  0  0  0  0  0  0  0
  1  2  1  0  0  0  0
  1 30  1  0  0  0  0
  1 31  1  0  0  0  0
  1 32  1  0  0  0  0
  2  3  1  0  0  0  0
  3  4  2  0  0  0  0
  3  5  1  0  0  0  0
  5  6  2  0  0  0  0
  5 11  1  0  0  0  0
  6  7  1  0  0  0  0
  6 33  1  0  0  0  0
  7  8  2  0  0  0  0
  7 34  1  0  0  0  0
  8  9  1  0  0  0  0
  9 10  1  0  0  0  0
  9 11  2  0  0  0  0
 10 35  1  0  0  0  0
 11 12  1  0  0  0  0
 12 13  1  0  0  0  0
 12 36  1  0  0  0  0
 13 14  2  0  0  0  0
 13 15  1  0  0  0  0
 15 16  2  0  0  0  0
 15 29  1  0  0  0  0
 16 17  1  0  0  0  0
 16 37  1  0  0  0  0
 17 18  2  0  0  0  0
 17 38  1  0  0  0  0
 18 19  1  0  0  0  0
 18 28  1  0  0  0  0
 19 20  1  0  0  0  0
 19 27  1  0  0  0  0
 20 21  2  0  0  0  0
 20 39  1  0  0  0  0
 21 22  1  0  0  0  0
 21 40  1  0  0  0  0
 22 23  2  0  0  0  0
 22 27  1  0  0  0  0
 23 24  1  0  0  0  0
 23 41  1  0  0  0  0
 24 25  2  0  0  0  0
 24 42  1  0  0  0  0
 25 26  1  0  0  0  0
 25 43  1  0  0  0  0
 26 27  2  0  0  0  0
 26 44  1  0  0  0  0
 28 29  2  0  0  0  0
 28 45  1  0  0  0  0
 29 46  1  0  0  0  0
M  END
$$$$
