
 OpenBabel01122422363D

 51 54  0  0  1  0  0  0  0  0999 V2000
    1.3531   -0.2840    0.0150 O   0  0  0  0  0  0  0  0  0  0  0  0
    2.5639   -0.1151    0.1272 C   0  0  0  0  0  0  0  0  0  0  0  0
    3.2011    1.0616   -0.2096 N   0  0  0  0  0  0  0  0  0  0  0  0
    2.4568    2.1870   -0.7924 C   0  0  3  0  0  0  0  0  0  0  0  0
    1.4010    2.7745    0.1820 C   0  0  0  0  0  0  0  0  0  0  0  0
    1.8674    3.3082    1.5148 C   0  0  0  0  0  0  0  0  0  0  0  0
    2.1218    4.6759    1.6762 C   0  0  0  0  0  0  0  0  0  0  0  0
    2.4225    5.1984    2.9341 C   0  0  0  0  0  0  0  0  0  0  0  0
    2.4842    4.3570    4.0425 C   0  0  0  0  0  0  0  0  0  0  0  0
    2.2732    2.9886    3.8885 C   0  0  0  0  0  0  0  0  0  0  0  0
    1.9671    2.4656    2.6308 C   0  0  0  0  0  0  0  0  0  0  0  0
    3.3621    3.2916   -1.4207 C   0  0  3  0  0  0  0  0  0  0  0  0
    4.2654    3.8424   -0.4618 O   0  0  0  0  0  0  0  0  0  0  0  0
    4.1685    2.9310   -2.6586 C   0  0  0  0  0  0  0  0  0  0  0  0
    4.1248    1.6751   -3.2820 C   0  0  0  0  0  0  0  0  0  0  0  0
    4.8667    1.4233   -4.4396 C   0  0  0  0  0  0  0  0  0  0  0  0
    5.6600    2.4229   -4.9960 C   0  0  0  0  0  0  0  0  0  0  0  0
    5.7145    3.6769   -4.3976 C   0  0  0  0  0  0  0  0  0  0  0  0
    4.9754    3.9278   -3.2405 C   0  0  0  0  0  0  0  0  0  0  0  0
    3.4348   -1.2243    0.6214 C   0  0  0  0  0  0  0  0  0  0  0  0
    2.8229   -2.3876    1.0625 C   0  0  0  0  0  0  0  0  0  0  0  0
    3.6265   -3.4701    1.3800 C   0  0  0  0  0  0  0  0  0  0  0  0
    5.0142   -3.3635    1.2450 C   0  0  0  0  0  0  0  0  0  0  0  0
    5.8342   -4.4744    1.4829 C   0  0  0  0  0  0  0  0  0  0  0  0
    7.2023   -4.3301    1.3484 C   0  0  0  0  0  0  0  0  0  0  0  0
    7.7961   -3.1604    1.0537 N   0  0  0  0  0  0  0  0  0  0  0  0
    6.9655   -2.1155    0.8284 C   0  0  0  0  0  0  0  0  0  0  0  0
    7.6559   -0.9693    0.5697 O   0  0  0  0  0  0  0  0  0  0  0  0
    5.5660   -2.1224    0.8635 C   0  0  0  0  0  0  0  0  0  0  0  0
    4.7804   -1.0519    0.5485 N   0  0  0  0  0  0  0  0  0  0  0  0
    4.2182    1.0439   -0.1917 H   0  0  0  0  0  0  0  0  0  0  0  0
    1.8629    1.7573   -1.6120 H   0  0  0  0  0  0  0  0  0  0  0  0
    0.6345    2.0168    0.3899 H   0  0  0  0  0  0  0  0  0  0  0  0
    0.8458    3.5678   -0.3368 H   0  0  0  0  0  0  0  0  0  0  0  0
    2.0730    5.3469    0.8216 H   0  0  0  0  0  0  0  0  0  0  0  0
    2.5946    6.2650    3.0478 H   0  0  0  0  0  0  0  0  0  0  0  0
    2.6929    4.7694    5.0258 H   0  0  0  0  0  0  0  0  0  0  0  0
    2.3251    2.3307    4.7519 H   0  0  0  0  0  0  0  0  0  0  0  0
    1.7736    1.4002    2.5335 H   0  0  0  0  0  0  0  0  0  0  0  0
    2.6999    4.1115   -1.7310 H   0  0  0  0  0  0  0  0  0  0  0  0
    4.7437    3.1002   -0.0575 H   0  0  0  0  0  0  0  0  0  0  0  0
    3.5141    0.8657   -2.8913 H   0  0  0  0  0  0  0  0  0  0  0  0
    4.8220    0.4436   -4.9080 H   0  0  0  0  0  0  0  0  0  0  0  0
    6.2344    2.2238   -5.8964 H   0  0  0  0  0  0  0  0  0  0  0  0
    6.3334    4.4603   -4.8267 H   0  0  0  0  0  0  0  0  0  0  0  0
    5.0290    4.9154   -2.7825 H   0  0  0  0  0  0  0  0  0  0  0  0
    1.7412   -2.4596    1.1284 H   0  0  0  0  0  0  0  0  0  0  0  0
    3.1616   -4.3959    1.7103 H   0  0  0  0  0  0  0  0  0  0  0  0
    5.4163   -5.4439    1.7374 H   0  0  0  0  0  0  0  0  0  0  0  0
    7.8703   -5.1778    1.4830 H   0  0  0  0  0  0  0  0  0  0  0  0
    8.5662   -1.2951    0.6863 H   0  0  0  0  0  0  0  0  0  0  0  0
  1  2  2  0  0  0  0
  2  3  1  0  0  0  0
  2 20  1  0  0  0  0
  3  4  1  0  0  0  0
  3 31  1  0  0  0  0
  4  5  1  0  0  0  0
  4 12  1  0  0  0  0
  4 32  1  0  0  0  0
  5  6  1  0  0  0  0
  5 33  1  0  0  0  0
  5 34  1  0  0  0  0
  6  7  2  0  0  0  0
  6 11  1  0  0  0  0
  7  8  1  0  0  0  0
  7 35  1  0  0  0  0
  8  9  2  0  0  0  0
  8 36  1  0  0  0  0
  9 10  1  0  0  0  0
  9 37  1  0  0  0  0
 10 11  2  0  0  0  0
 10 38  1  0  0  0  0
 11 39  1  0  0  0  0
 12 13  1  0  0  0  0
 12 14  1  0  0  0  0
 12 40  1  0  0  0  0
 13 41  1  0  0  0  0
 14 15  2  0  0  0  0
 14 19  1  0  0  0  0
 15 16  1  0  0  0  0
 15 42  1  0  0  0  0
 16 17  2  0  0  0  0
 16 43  1  0  0  0  0
 17 18  1  0  0  0  0
 17 44  1  0  0  0  0
 18 19  2  0  0  0  0
 18 45  1  0  0  0  0
 19 46  1  0  0  0  0
 20 21  2  0  0  0  0
 20 30  1  0  0  0  0
 21 22  1  0  0  0  0
 21 47  1  0  0  0  0
 22 23  2  0  0  0  0
 22 48  1  0  0  0  0
 23 24  1  0  0  0  0
 23 29  1  0  0  0  0
 24 25  2  0  0  0  0
 24 49  1  0  0  0  0
 25 26  1  0  0  0  0
 25 50  1  0  0  0  0
 26 27  2  0  0  0  0
 27 28  1  0  0  0  0
 27 29  1  0  0  0  0
 28 51  1  0  0  0  0
 29 30  2  0  0  0  0
M  END
$$$$
