
 OpenBabel01122422363D

 43 46  0  0  0  0  0  0  0  0999 V2000
    3.0489   -2.4155    1.2889 O   0  0  0  0  0  0  0  0  0  0  0  0
    3.3154   -1.3721    0.6958 C   0  0  0  0  0  0  0  0  0  0  0  0
    2.9742   -0.1391    1.1878 N   0  0  0  0  0  0  0  0  0  0  0  0
    2.3301   -0.0009    2.4792 C   0  0  0  0  0  0  0  0  0  0  0  0
    3.3124    0.0466    3.6209 C   0  0  0  0  0  0  0  0  0  0  0  0
    3.7221   -1.1150    4.2683 C   0  0  0  0  0  0  0  0  0  0  0  0
    4.6023   -1.1177    5.3035 N   0  0  0  0  0  0  0  0  0  0  0  0
    5.0848    0.0908    5.6917 C   0  0  0  0  0  0  0  0  0  0  0  0
    6.0769    0.1038    6.7860 C   0  0  0  0  0  0  0  0  0  0  0  0
    6.9472   -0.9838    6.9866 C   0  0  0  0  0  0  0  0  0  0  0  0
    7.9543   -0.9435    7.9572 C   0  0  0  0  0  0  0  0  0  0  0  0
    8.1050    0.1832    8.7599 C   0  0  0  0  0  0  0  0  0  0  0  0
    7.2322    1.2560    8.6128 C   0  0  0  0  0  0  0  0  0  0  0  0
    6.2248    1.2115    7.6436 C   0  0  0  0  0  0  0  0  0  0  0  0
    4.6792    1.2465    5.0222 C   0  0  0  0  0  0  0  0  0  0  0  0
    3.8001    1.2587    3.9861 N   0  0  0  0  0  0  0  0  0  0  0  0
    4.0079   -1.4012   -0.6350 C   0  0  0  0  0  0  0  0  0  0  0  0
    4.7303   -0.3679   -1.1171 C   0  0  0  0  0  0  0  0  0  0  0  0
    5.3785   -0.5024   -2.3443 N   0  0  0  0  0  0  0  0  0  0  0  0
    6.1532    0.4052   -3.0205 C   0  0  0  0  0  0  0  0  0  0  0  0
    6.5675   -0.2263   -4.1837 C   0  0  0  0  0  0  0  0  0  0  0  0
    7.4414    0.3126   -5.2797 C   0  0  0  0  0  0  0  0  0  0  0  0
    7.8315    1.5930   -5.0273 F   0  0  0  0  0  0  0  0  0  0  0  0
    8.5795   -0.4119   -5.4371 F   0  0  0  0  0  0  0  0  0  0  0  0
    6.8086    0.3338   -6.4814 F   0  0  0  0  0  0  0  0  0  0  0  0
    6.0437   -1.5134   -4.2226 N   0  0  0  0  0  0  0  0  0  0  0  0
    5.3443   -1.6545   -3.1184 C   0  0  0  0  0  0  0  0  0  0  0  0
    4.6018   -2.7534   -2.6100 C   0  0  0  0  0  0  0  0  0  0  0  0
    3.9658   -2.6361   -1.4281 C   0  0  0  0  0  0  0  0  0  0  0  0
    3.1740    0.7101    0.6783 H   0  0  0  0  0  0  0  0  0  0  0  0
    1.6082   -0.8124    2.6272 H   0  0  0  0  0  0  0  0  0  0  0  0
    1.7649    0.9371    2.4523 H   0  0  0  0  0  0  0  0  0  0  0  0
    3.3532   -2.0919    3.9692 H   0  0  0  0  0  0  0  0  0  0  0  0
    6.8559   -1.8732    6.3639 H   0  0  0  0  0  0  0  0  0  0  0  0
    8.6255   -1.7902    8.0762 H   0  0  0  0  0  0  0  0  0  0  0  0
    8.8975    0.2227    9.5025 H   0  0  0  0  0  0  0  0  0  0  0  0
    7.3353    2.1322    9.2479 H   0  0  0  0  0  0  0  0  0  0  0  0
    5.5520    2.0633    7.5731 H   0  0  0  0  0  0  0  0  0  0  0  0
    5.0727    2.2222    5.2867 H   0  0  0  0  0  0  0  0  0  0  0  0
    4.8703    0.5739   -0.6063 H   0  0  0  0  0  0  0  0  0  0  0  0
    6.3482    1.3968   -2.6360 H   0  0  0  0  0  0  0  0  0  0  0  0
    4.5712   -3.6726   -3.1845 H   0  0  0  0  0  0  0  0  0  0  0  0
    3.4042   -3.4764   -1.0248 H   0  0  0  0  0  0  0  0  0  0  0  0
  1  2  2  0  0  0  0
  2  3  1  0  0  0  0
  2 17  1  0  0  0  0
  3  4  1  0  0  0  0
  3 30  1  0  0  0  0
  4  5  1  0  0  0  0
  4 31  1  0  0  0  0
  4 32  1  0  0  0  0
  5  6  2  0  0  0  0
  5 16  1  0  0  0  0
  6  7  1  0  0  0  0
  6 33  1  0  0  0  0
  7  8  2  0  0  0  0
  8  9  1  0  0  0  0
  8 15  1  0  0  0  0
  9 10  2  0  0  0  0
  9 14  1  0  0  0  0
 10 11  1  0  0  0  0
 10 34  1  0  0  0  0
 11 12  2  0  0  0  0
 11 35  1  0  0  0  0
 12 13  1  0  0  0  0
 12 36  1  0  0  0  0
 13 14  2  0  0  0  0
 13 37  1  0  0  0  0
 14 38  1  0  0  0  0
 15 16  2  0  0  0  0
 15 39  1  0  0  0  0
 17 18  2  0  0  0  0
 17 29  1  0  0  0  0
 18 19  1  0  0  0  0
 18 40  1  0  0  0  0
 19 20  1  0  0  0  0
 19 27  1  0  0  0  0
 20 21  2  0  0  0  0
 20 41  1  0  0  0  0
 21 22  1  0  0  0  0
 21 26  1  0  0  0  0
 22 23  1  0  0  0  0
 22 24  1  0  0  0  0
 22 25  1  0  0  0  0
 26 27  2  0  0  0  0
 27 28  1  0  0  0  0
 28 29  2  0  0  0  0
 28 42  1  0  0  0  0
 29 43  1  0  0  0  0
M  END
$$$$
