
 OpenBabel01122422363D

 43 46  0  0  0  0  0  0  0  0999 V2000
    1.0421    0.1311   -0.3746 O   0  0  0  0  0  0  0  0  0  0  0  0
    2.1900    0.1241    0.0637 C   0  0  0  0  0  0  0  0  0  0  0  0
    2.7249   -0.8023    0.9148 N   0  0  0  0  0  0  0  0  0  0  0  0
    2.1215   -1.9443    1.4546 C   0  0  0  0  0  0  0  0  0  0  0  0
    0.9265   -2.4716    0.9816 C   0  0  0  0  0  0  0  0  0  0  0  0
    0.3609   -3.5970    1.5900 C   0  0  0  0  0  0  0  0  0  0  0  0
    0.9761   -4.2367    2.6799 C   0  0  0  0  0  0  0  0  0  0  0  0
    0.3777   -5.4363    3.3091 C   0  0  0  0  0  0  0  0  0  0  0  0
   -0.3587   -6.3647    2.5526 C   0  0  0  0  0  0  0  0  0  0  0  0
   -0.8928   -7.5065    3.1434 C   0  0  0  0  0  0  0  0  0  0  0  0
   -1.5876   -8.3699    2.3913 F   0  0  0  0  0  0  0  0  0  0  0  0
   -0.7094   -7.7685    4.4925 C   0  0  0  0  0  0  0  0  0  0  0  0
    0.0054   -6.8637    5.2688 C   0  0  0  0  0  0  0  0  0  0  0  0
    0.5333   -5.7065    4.6836 C   0  0  0  0  0  0  0  0  0  0  0  0
    2.1949   -3.6997    3.1291 C   0  0  0  0  0  0  0  0  0  0  0  0
    2.7652   -2.5748    2.5221 C   0  0  0  0  0  0  0  0  0  0  0  0
    3.0086    1.1686   -0.2813 N   0  0  0  0  0  0  0  0  0  0  0  0
    4.3663    1.3378   -0.0025 C   0  0  0  0  0  0  0  0  0  0  0  0
    4.9832    2.5158   -0.4086 C   0  0  0  0  0  0  0  0  0  0  0  0
    6.3469    2.6809   -0.1567 C   0  0  0  0  0  0  0  0  0  0  0  0
    7.0443    1.6473    0.4611 C   0  0  0  0  0  0  0  0  0  0  0  0
    8.4863    1.6995    0.7212 C   0  0  0  0  0  0  0  0  0  0  0  0
    9.1441    2.6992    0.4508 O   0  0  0  0  0  0  0  0  0  0  0  0
    9.0438    0.5701    1.2683 N   0  0  0  0  0  0  0  0  0  0  0  0
    8.3769   -0.5810    1.5788 C   0  0  0  0  0  0  0  0  0  0  0  0
    8.9540   -1.5690    2.0153 O   0  0  0  0  0  0  0  0  0  0  0  0
    7.0340   -0.5711    1.3736 N   0  0  0  0  0  0  0  0  0  0  0  0
    6.3570    0.5037    0.8195 C   0  0  0  0  0  0  0  0  0  0  0  0
    5.0352    0.3449    0.6284 N   0  0  0  0  0  0  0  0  0  0  0  0
    3.6590   -0.5726    1.2417 H   0  0  0  0  0  0  0  0  0  0  0  0
    0.4151   -2.0387    0.1275 H   0  0  0  0  0  0  0  0  0  0  0  0
   -0.5849   -3.9571    1.1920 H   0  0  0  0  0  0  0  0  0  0  0  0
   -0.5164   -6.2279    1.4868 H   0  0  0  0  0  0  0  0  0  0  0  0
   -1.1233   -8.6725    4.9264 H   0  0  0  0  0  0  0  0  0  0  0  0
    0.1555   -7.0523    6.3286 H   0  0  0  0  0  0  0  0  0  0  0  0
    1.0682   -5.0095    5.3259 H   0  0  0  0  0  0  0  0  0  0  0  0
    2.7294   -4.1565    3.9593 H   0  0  0  0  0  0  0  0  0  0  0  0
    3.7025   -2.1898    2.9134 H   0  0  0  0  0  0  0  0  0  0  0  0
    2.5343    1.8642   -0.8369 H   0  0  0  0  0  0  0  0  0  0  0  0
    4.4278    3.3002   -0.9128 H   0  0  0  0  0  0  0  0  0  0  0  0
    6.8572    3.5923   -0.4564 H   0  0  0  0  0  0  0  0  0  0  0  0
   10.0405    0.5706    1.4243 H   0  0  0  0  0  0  0  0  0  0  0  0
    6.5137   -1.4125    1.5782 H   0  0  0  0  0  0  0  0  0  0  0  0
  1  2  2  0  0  0  0
  2  3  1  0  0  0  0
  2 17  1  0  0  0  0
  3  4  1  0  0  0  0
  3 30  1  0  0  0  0
  4  5  2  0  0  0  0
  4 16  1  0  0  0  0
  5  6  1  0  0  0  0
  5 31  1  0  0  0  0
  6  7  2  0  0  0  0
  6 32  1  0  0  0  0
  7  8  1  0  0  0  0
  7 15  1  0  0  0  0
  8  9  2  0  0  0  0
  8 14  1  0  0  0  0
  9 10  1  0  0  0  0
  9 33  1  0  0  0  0
 10 11  1  0  0  0  0
 10 12  2  0  0  0  0
 12 13  1  0  0  0  0
 12 34  1  0  0  0  0
 13 14  2  0  0  0  0
 13 35  1  0  0  0  0
 14 36  1  0  0  0  0
 15 16  2  0  0  0  0
 15 37  1  0  0  0  0
 16 38  1  0  0  0  0
 17 18  1  0  0  0  0
 17 39  1  0  0  0  0
 18 19  2  0  0  0  0
 18 29  1  0  0  0  0
 19 20  1  0  0  0  0
 19 40  1  0  0  0  0
 20 21  2  0  0  0  0
 20 41  1  0  0  0  0
 21 22  1  0  0  0  0
 21 28  1  0  0  0  0
 22 23  2  0  0  0  0
 22 24  1  0  0  0  0
 24 25  1  0  0  0  0
 24 42  1  0  0  0  0
 25 26  2  0  0  0  0
 25 27  1  0  0  0  0
 27 28  1  0  0  0  0
 27 43  1  0  0  0  0
 28 29  2  0  0  0  0
M  END
$$$$
