
 OpenBabel01122422363D

 45 48  0  0  0  0  0  0  0  0999 V2000
    1.6105    2.6563   -2.5306 O   0  0  0  0  0  0  0  0  0  0  0  0
    2.4774    1.9422   -2.0516 C   0  0  0  0  0  0  0  0  0  0  0  0
    2.8317    0.7659   -2.6074 O   0  0  0  0  0  0  0  0  0  0  0  0
    3.2216    2.2793   -0.8091 C   0  0  0  0  0  0  0  0  0  0  0  0
    2.6176    3.1278    0.0382 C   0  0  0  0  0  0  0  0  0  0  0  0
    3.2027    3.5454    1.2358 N   0  0  0  0  0  0  0  0  0  0  0  0
    2.5600    4.5484    2.0339 C   0  0  0  0  0  0  0  0  0  0  0  0
    2.5164    4.4765    3.4269 C   0  0  0  0  0  0  0  0  0  0  0  0
    1.8696    5.4738    4.1597 C   0  0  0  0  0  0  0  0  0  0  0  0
    1.2836    6.5652    3.5080 C   0  0  0  0  0  0  0  0  0  0  0  0
    1.3124    6.6732    2.1093 C   0  0  0  0  0  0  0  0  0  0  0  0
    0.6646    7.7815    1.3731 C   0  0  0  0  0  0  0  0  0  0  0  0
    1.2285    8.3019    0.1851 C   0  0  0  0  0  0  0  0  0  0  0  0
    0.5578    9.2494   -0.6103 C   0  0  0  0  0  0  0  0  0  0  0  0
    1.1549    9.7174   -1.9134 C   0  0  0  0  0  0  0  0  0  0  0  0
    0.7526    8.8786   -3.0334 N   0  0  0  0  0  0  0  0  0  0  0  0
    1.4491    7.8069   -3.5350 C   0  0  0  0  0  0  0  0  0  0  0  0
    0.7428    7.4204   -4.6523 C   0  0  0  0  0  0  0  0  0  0  0  0
   -0.3482    8.2305   -4.8392 N   0  0  0  0  0  0  0  0  0  0  0  0
   -0.3185    9.0914   -3.8466 C   0  0  0  0  0  0  0  0  0  0  0  0
   -0.6885    9.7174   -0.1825 C   0  0  0  0  0  0  0  0  0  0  0  0
   -1.2312    9.2484    1.0083 C   0  0  0  0  0  0  0  0  0  0  0  0
   -2.4250    9.7052    1.4082 F   0  0  0  0  0  0  0  0  0  0  0  0
   -0.5752    8.2944    1.7792 C   0  0  0  0  0  0  0  0  0  0  0  0
    1.9492    5.6410    1.3979 C   0  0  0  0  0  0  0  0  0  0  0  0
    4.4676    3.0690    1.6263 C   0  0  0  0  0  0  0  0  0  0  0  0
    5.0902    3.3727    2.6412 O   0  0  0  0  0  0  0  0  0  0  0  0
    5.1432    2.1628    0.6510 C   0  0  0  0  0  0  0  0  0  0  0  0
    4.5524    1.8114   -0.4982 C   0  0  0  0  0  0  0  0  0  0  0  0
    3.4069    0.2003   -2.0636 H   0  0  0  0  0  0  0  0  0  0  0  0
    1.6162    3.5030   -0.1689 H   0  0  0  0  0  0  0  0  0  0  0  0
    2.9489    3.6307    3.9556 H   0  0  0  0  0  0  0  0  0  0  0  0
    1.8176    5.3977    5.2435 H   0  0  0  0  0  0  0  0  0  0  0  0
    0.8065    7.3331    4.1137 H   0  0  0  0  0  0  0  0  0  0  0  0
    2.2052    7.9470   -0.1425 H   0  0  0  0  0  0  0  0  0  0  0  0
    2.2508    9.7140   -1.8649 H   0  0  0  0  0  0  0  0  0  0  0  0
    0.8486   10.7458   -2.1378 H   0  0  0  0  0  0  0  0  0  0  0  0
    2.3545    7.4267   -3.0829 H   0  0  0  0  0  0  0  0  0  0  0  0
    0.9696    6.6132   -5.3398 H   0  0  0  0  0  0  0  0  0  0  0  0
   -1.0359    9.8844   -3.6837 H   0  0  0  0  0  0  0  0  0  0  0  0
   -1.2547   10.4377   -0.7657 H   0  0  0  0  0  0  0  0  0  0  0  0
   -1.0702    7.9295    2.6744 H   0  0  0  0  0  0  0  0  0  0  0  0
    1.9943    5.7058    0.3129 H   0  0  0  0  0  0  0  0  0  0  0  0
    6.1502    1.8573    0.9079 H   0  0  0  0  0  0  0  0  0  0  0  0
    5.0987    1.2121   -1.2176 H   0  0  0  0  0  0  0  0  0  0  0  0
  1  2  2  0  0  0  0
  2  3  1  0  0  0  0
  2  4  1  0  0  0  0
  3 30  1  0  0  0  0
  4  5  2  0  0  0  0
  4 29  1  0  0  0  0
  5  6  1  0  0  0  0
  5 31  1  0  0  0  0
  6  7  1  0  0  0  0
  6 26  1  0  0  0  0
  7  8  2  0  0  0  0
  7 25  1  0  0  0  0
  8  9  1  0  0  0  0
  8 32  1  0  0  0  0
  9 10  2  0  0  0  0
  9 33  1  0  0  0  0
 10 11  1  0  0  0  0
 10 34  1  0  0  0  0
 11 12  1  0  0  0  0
 11 25  2  0  0  0  0
 12 13  2  0  0  0  0
 12 24  1  0  0  0  0
 13 14  1  0  0  0  0
 13 35  1  0  0  0  0
 14 15  1  0  0  0  0
 14 21  2  0  0  0  0
 15 16  1  0  0  0  0
 15 36  1  0  0  0  0
 15 37  1  0  0  0  0
 16 17  1  0  0  0  0
 16 20  1  0  0  0  0
 17 18  2  0  0  0  0
 17 38  1  0  0  0  0
 18 19  1  0  0  0  0
 18 39  1  0  0  0  0
 19 20  2  0  0  0  0
 20 40  1  0  0  0  0
 21 22  1  0  0  0  0
 21 41  1  0  0  0  0
 22 23  1  0  0  0  0
 22 24  2  0  0  0  0
 24 42  1  0  0  0  0
 25 43  1  0  0  0  0
 26 27  2  0  0  0  0
 26 28  1  0  0  0  0
 28 29  2  0  0  0  0
 28 44  1  0  0  0  0
 29 45  1  0  0  0  0
M  END
$$$$
