
 OpenBabel01122422363D

 50 53  0  0  0  0  0  0  0  0999 V2000
    3.4484   -2.0226    5.6419 C   0  0  0  0  0  0  0  0  0  0  0  0
    2.8454   -0.9477    4.8917 N   0  0  0  0  0  0  0  0  0  0  0  0
    2.3646    0.1337    5.5408 N   0  0  0  0  0  0  0  0  0  0  0  0
    1.8626    0.8838    4.5537 C   0  0  0  0  0  0  0  0  0  0  0  0
    2.0112    0.2858    3.2819 C   0  0  0  0  0  0  0  0  0  0  0  0
    1.6755    0.6190    1.9582 C   0  0  0  0  0  0  0  0  0  0  0  0
    2.0177   -0.2663    0.9284 C   0  0  0  0  0  0  0  0  0  0  0  0
    2.6886   -1.4680    1.1906 C   0  0  0  0  0  0  0  0  0  0  0  0
    3.1220   -2.3684    0.0548 C   0  0  0  0  0  0  0  0  0  0  0  0
    2.5620   -3.7002    0.1675 N   0  0  0  0  0  0  0  0  0  0  0  0
    3.3520   -4.8104    0.1004 C   0  0  0  0  0  0  0  0  0  0  0  0
    4.5745   -4.7708    0.0335 O   0  0  0  0  0  0  0  0  0  0  0  0
    2.6413   -5.9766    0.1470 N   0  0  0  0  0  0  0  0  0  0  0  0
    3.3048   -7.2682    0.2200 C   0  0  0  0  0  0  0  0  0  0  0  0
    3.5723   -7.7274    1.6408 C   0  0  0  0  0  0  0  0  0  0  0  0
    4.3491   -6.9451    2.4907 C   0  0  0  0  0  0  0  0  0  0  0  0
    4.6798   -7.4250    3.7533 C   0  0  0  0  0  0  0  0  0  0  0  0
    5.4707   -6.7335    4.6463 O   0  0  0  0  0  0  0  0  0  0  0  0
    6.5159   -5.9673    4.1760 C   0  0  0  0  0  0  0  0  0  0  0  0
    7.2879   -6.3023    3.0502 C   0  0  0  0  0  0  0  0  0  0  0  0
    8.3212   -5.4663    2.6326 C   0  0  0  0  0  0  0  0  0  0  0  0
    8.6193   -4.3268    3.3658 C   0  0  0  0  0  0  0  0  0  0  0  0
    9.6267   -3.5302    2.9723 F   0  0  0  0  0  0  0  0  0  0  0  0
    7.8904   -4.0180    4.5068 C   0  0  0  0  0  0  0  0  0  0  0  0
    8.1915   -2.9244    5.2245 F   0  0  0  0  0  0  0  0  0  0  0  0
    6.8403   -4.8345    4.9195 C   0  0  0  0  0  0  0  0  0  0  0  0
    4.1568   -8.6378    4.1746 C   0  0  0  0  0  0  0  0  0  0  0  0
    3.3707   -9.3487    3.2844 C   0  0  0  0  0  0  0  0  0  0  0  0
    3.0738   -8.9252    2.0316 N   0  0  0  0  0  0  0  0  0  0  0  0
    3.0284   -1.8057    2.5136 C   0  0  0  0  0  0  0  0  0  0  0  0
    2.6715   -0.9140    3.5330 C   0  0  0  0  0  0  0  0  0  0  0  0
    3.4882   -1.7572    6.7019 H   0  0  0  0  0  0  0  0  0  0  0  0
    4.4595   -2.1873    5.2614 H   0  0  0  0  0  0  0  0  0  0  0  0
    2.8357   -2.9172    5.5046 H   0  0  0  0  0  0  0  0  0  0  0  0
    1.4086    1.8352    4.7986 H   0  0  0  0  0  0  0  0  0  0  0  0
    1.1581    1.5537    1.7382 H   0  0  0  0  0  0  0  0  0  0  0  0
    1.7682    0.0090   -0.0950 H   0  0  0  0  0  0  0  0  0  0  0  0
    4.2158   -2.3971    0.0196 H   0  0  0  0  0  0  0  0  0  0  0  0
    2.7772   -1.9699   -0.9061 H   0  0  0  0  0  0  0  0  0  0  0  0
    1.5607   -3.7961    0.1397 H   0  0  0  0  0  0  0  0  0  0  0  0
    1.6458   -5.9536    0.2986 H   0  0  0  0  0  0  0  0  0  0  0  0
    4.2558   -7.2312   -0.3251 H   0  0  0  0  0  0  0  0  0  0  0  0
    2.6579   -7.9908   -0.2886 H   0  0  0  0  0  0  0  0  0  0  0  0
    4.7274   -5.9885    2.1474 H   0  0  0  0  0  0  0  0  0  0  0  0
    7.0793   -7.2000    2.4748 H   0  0  0  0  0  0  0  0  0  0  0  0
    8.8937   -5.6981    1.7382 H   0  0  0  0  0  0  0  0  0  0  0  0
    6.2815   -4.5746    5.8137 H   0  0  0  0  0  0  0  0  0  0  0  0
    4.3646   -9.0256    5.1655 H   0  0  0  0  0  0  0  0  0  0  0  0
    2.9475  -10.3095    3.5599 H   0  0  0  0  0  0  0  0  0  0  0  0
    3.5674   -2.7243    2.7321 H   0  0  0  0  0  0  0  0  0  0  0  0
  1  2  1  0  0  0  0
  1 32  1  0  0  0  0
  1 33  1  0  0  0  0
  1 34  1  0  0  0  0
  2  3  1  0  0  0  0
  2 31  1  0  0  0  0
  3  4  2  0  0  0  0
  4  5  1  0  0  0  0
  4 35  1  0  0  0  0
  5  6  2  0  0  0  0
  5 31  1  0  0  0  0
  6  7  1  0  0  0  0
  6 36  1  0  0  0  0
  7  8  2  0  0  0  0
  7 37  1  0  0  0  0
  8  9  1  0  0  0  0
  8 30  1  0  0  0  0
  9 10  1  0  0  0  0
  9 38  1  0  0  0  0
  9 39  1  0  0  0  0
 10 11  1  0  0  0  0
 10 40  1  0  0  0  0
 11 12  2  0  0  0  0
 11 13  1  0  0  0  0
 13 14  1  0  0  0  0
 13 41  1  0  0  0  0
 14 15  1  0  0  0  0
 14 42  1  0  0  0  0
 14 43  1  0  0  0  0
 15 16  2  0  0  0  0
 15 29  1  0  0  0  0
 16 17  1  0  0  0  0
 16 44  1  0  0  0  0
 17 18  1  0  0  0  0
 17 27  2  0  0  0  0
 18 19  1  0  0  0  0
 19 20  2  0  0  0  0
 19 26  1  0  0  0  0
 20 21  1  0  0  0  0
 20 45  1  0  0  0  0
 21 22  2  0  0  0  0
 21 46  1  0  0  0  0
 22 23  1  0  0  0  0
 22 24  1  0  0  0  0
 24 25  1  0  0  0  0
 24 26  2  0  0  0  0
 26 47  1  0  0  0  0
 27 28  1  0  0  0  0
 27 48  1  0  0  0  0
 28 29  2  0  0  0  0
 28 49  1  0  0  0  0
 30 31  2  0  0  0  0
 30 50  1  0  0  0  0
M  END
$$$$
