
 OpenBabel01122422363D

 46 49  0  0  0  0  0  0  0  0999 V2000
    2.9843   -0.3383   -1.1157 O   0  0  0  0  0  0  0  0  0  0  0  0
    2.4104   -0.0734   -0.0705 C   0  0  0  0  0  0  0  0  0  0  0  0
    2.9855    0.4552    1.0346 O   0  0  0  0  0  0  0  0  0  0  0  0
    4.3881    0.7585    0.9422 C   0  0  0  0  0  0  0  0  0  0  0  0
    4.5250    2.2221    1.1116 C   0  0  0  0  0  0  0  0  0  0  0  0
    4.5509    3.2922    0.2494 C   0  0  0  0  0  0  0  0  0  0  0  0
    4.6133    4.4286    1.0959 C   0  0  0  0  0  0  0  0  0  0  0  0
    4.6342    5.8712    0.7176 C   0  0  0  0  0  0  0  0  0  0  0  0
    3.1975    6.3431    0.6728 C   0  0  0  0  0  0  0  0  0  0  0  0
    2.5724    6.8498    1.8248 C   0  0  0  0  0  0  0  0  0  0  0  0
    1.2492    7.2972    1.7812 C   0  0  0  0  0  0  0  0  0  0  0  0
    0.5364    7.2529    0.5850 C   0  0  0  0  0  0  0  0  0  0  0  0
    1.1454    6.7610   -0.5677 C   0  0  0  0  0  0  0  0  0  0  0  0
    2.4655    6.3052   -0.5240 C   0  0  0  0  0  0  0  0  0  0  0  0
    4.7154    4.0589    2.3815 N   0  0  0  0  0  0  0  0  0  0  0  0
    4.6440    2.6779    2.3873 O   0  0  0  0  0  0  0  0  0  0  0  0
    0.9486   -0.3129    0.1236 C   0  0  0  0  0  0  0  0  0  0  0  0
    0.2326   -0.9112   -0.9273 C   0  0  0  0  0  0  0  0  0  0  0  0
   -1.1362   -1.1801   -0.8029 C   0  0  0  0  0  0  0  0  0  0  0  0
   -1.8120   -0.8572    0.3788 C   0  0  0  0  0  0  0  0  0  0  0  0
   -3.2669   -1.1376    0.5689 C   0  0  0  0  0  0  0  0  0  0  0  0
   -3.7214   -1.3756    1.7649 N   0  0  0  0  0  0  0  0  0  0  0  0
   -5.0593   -1.6163    1.8816 N   0  0  0  0  0  0  0  0  0  0  0  0
   -5.9719   -1.6179    0.8665 C   0  0  0  0  0  0  0  0  0  0  0  0
   -7.1679   -1.8267    1.0258 O   0  0  0  0  0  0  0  0  0  0  0  0
   -5.4334   -1.3350   -0.4772 C   0  0  0  0  0  0  0  0  0  0  0  0
   -4.1292   -1.0993   -0.6429 C   0  0  0  0  0  0  0  0  0  0  0  0
   -1.0982   -0.2611    1.4295 C   0  0  0  0  0  0  0  0  0  0  0  0
    0.2679    0.0225    1.2993 C   0  0  0  0  0  0  0  0  0  0  0  0
    4.8458    0.4345   -0.0003 H   0  0  0  0  0  0  0  0  0  0  0  0
    4.9029    0.2273    1.7512 H   0  0  0  0  0  0  0  0  0  0  0  0
    4.4975    3.2593   -0.8285 H   0  0  0  0  0  0  0  0  0  0  0  0
    5.1112    6.0118   -0.2594 H   0  0  0  0  0  0  0  0  0  0  0  0
    5.2089    6.4659    1.4378 H   0  0  0  0  0  0  0  0  0  0  0  0
    3.1156    6.8984    2.7672 H   0  0  0  0  0  0  0  0  0  0  0  0
    0.7756    7.6809    2.6810 H   0  0  0  0  0  0  0  0  0  0  0  0
   -0.4921    7.6031    0.5514 H   0  0  0  0  0  0  0  0  0  0  0  0
    0.5918    6.7350   -1.5024 H   0  0  0  0  0  0  0  0  0  0  0  0
    2.9214    5.9259   -1.4358 H   0  0  0  0  0  0  0  0  0  0  0  0
    0.7410   -1.1773   -1.8525 H   0  0  0  0  0  0  0  0  0  0  0  0
   -1.6416   -1.6630   -1.6348 H   0  0  0  0  0  0  0  0  0  0  0  0
   -5.4040   -1.8038    2.8203 H   0  0  0  0  0  0  0  0  0  0  0  0
   -6.1430   -1.3140   -1.2932 H   0  0  0  0  0  0  0  0  0  0  0  0
   -3.7252   -0.8586   -1.6161 H   0  0  0  0  0  0  0  0  0  0  0  0
   -1.6091   -0.0076    2.3584 H   0  0  0  0  0  0  0  0  0  0  0  0
    0.7830    0.5082    2.1266 H   0  0  0  0  0  0  0  0  0  0  0  0
  1  2  2  0  0  0  0
  2  3  1  0  0  0  0
  2 17  1  0  0  0  0
  3  4  1  0  0  0  0
  4  5  1  0  0  0  0
  4 30  1  0  0  0  0
  4 31  1  0  0  0  0
  5  6  2  0  0  0  0
  5 16  1  0  0  0  0
  6  7  1  0  0  0  0
  6 32  1  0  0  0  0
  7  8  1  0  0  0  0
  7 15  2  0  0  0  0
  8  9  1  0  0  0  0
  8 33  1  0  0  0  0
  8 34  1  0  0  0  0
  9 10  2  0  0  0  0
  9 14  1  0  0  0  0
 10 11  1  0  0  0  0
 10 35  1  0  0  0  0
 11 12  2  0  0  0  0
 11 36  1  0  0  0  0
 12 13  1  0  0  0  0
 12 37  1  0  0  0  0
 13 14  2  0  0  0  0
 13 38  1  0  0  0  0
 14 39  1  0  0  0  0
 15 16  1  0  0  0  0
 17 18  2  0  0  0  0
 17 29  1  0  0  0  0
 18 19  1  0  0  0  0
 18 40  1  0  0  0  0
 19 20  2  0  0  0  0
 19 41  1  0  0  0  0
 20 21  1  0  0  0  0
 20 28  1  0  0  0  0
 21 22  2  0  0  0  0
 21 27  1  0  0  0  0
 22 23  1  0  0  0  0
 23 24  1  0  0  0  0
 23 42  1  0  0  0  0
 24 25  2  0  0  0  0
 24 26  1  0  0  0  0
 26 27  2  0  0  0  0
 26 43  1  0  0  0  0
 27 44  1  0  0  0  0
 28 29  2  0  0  0  0
 28 45  1  0  0  0  0
 29 46  1  0  0  0  0
M  END
$$$$
