
 OpenBabel01122422363D

 45 48  0  0  0  0  0  0  0  0999 V2000
    1.0231    0.5121    0.2174 O   0  0  0  0  0  0  0  0  0  0  0  0
    2.2134    0.2169    0.1426 C   0  0  0  0  0  0  0  0  0  0  0  0
    2.8856   -0.3880    1.1717 N   0  0  0  0  0  0  0  0  0  0  0  0
    2.2459   -0.7055    2.4297 C   0  0  0  0  0  0  0  0  0  0  0  0
    2.8146    0.1054    3.5695 C   0  0  0  0  0  0  0  0  0  0  0  0
    2.2826    1.3501    3.8922 C   0  0  0  0  0  0  0  0  0  0  0  0
    2.8178    2.0587    4.9712 C   0  0  0  0  0  0  0  0  0  0  0  0
    3.8830    1.5153    5.6947 C   0  0  0  0  0  0  0  0  0  0  0  0
    4.4427    2.1843    6.8151 N   0  0  0  0  0  0  0  0  0  0  0  0
    4.0311    3.3779    7.3712 C   0  0  0  0  0  0  0  0  0  0  0  0
    4.8582    3.6077    8.4453 C   0  0  0  0  0  0  0  0  0  0  0  0
    5.7740    2.6059    8.5729 N   0  0  0  0  0  0  0  0  0  0  0  0
    5.5070    1.7730    7.5913 C   0  0  0  0  0  0  0  0  0  0  0  0
    4.3716    0.2804    5.2814 C   0  0  0  0  0  0  0  0  0  0  0  0
    3.8654   -0.4264    4.2410 N   0  0  0  0  0  0  0  0  0  0  0  0
    2.9704    0.5329   -1.0959 C   0  0  0  0  0  0  0  0  0  0  0  0
    2.2651    1.0970   -2.1668 C   0  0  0  0  0  0  0  0  0  0  0  0
    2.9020    1.4634   -3.3645 C   0  0  0  0  0  0  0  0  0  0  0  0
    2.1351    2.0429   -4.4897 C   0  0  0  0  0  0  0  0  0  0  0  0
    1.0028    2.8507   -4.2543 C   0  0  0  0  0  0  0  0  0  0  0  0
    0.2073    3.3267   -5.3022 C   0  0  0  0  0  0  0  0  0  0  0  0
    0.5363    3.0270   -6.6194 C   0  0  0  0  0  0  0  0  0  0  0  0
    1.6687    2.2641   -6.8860 C   0  0  0  0  0  0  0  0  0  0  0  0
    2.4505    1.7827   -5.8340 C   0  0  0  0  0  0  0  0  0  0  0  0
    3.5132    1.0264   -6.1496 F   0  0  0  0  0  0  0  0  0  0  0  0
    4.2768    1.2180   -3.4073 C   0  0  0  0  0  0  0  0  0  0  0  0
    5.0020    0.6544   -2.4035 N   0  0  0  0  0  0  0  0  0  0  0  0
    4.3241    0.3273   -1.2872 C   0  0  0  0  0  0  0  0  0  0  0  0
    5.1274   -0.2466   -0.3557 O   0  0  0  0  0  0  0  0  0  0  0  0
    3.8815   -0.5754    1.0838 H   0  0  0  0  0  0  0  0  0  0  0  0
    2.4218   -1.7700    2.6179 H   0  0  0  0  0  0  0  0  0  0  0  0
    1.1614   -0.5622    2.3717 H   0  0  0  0  0  0  0  0  0  0  0  0
    1.4575    1.7622    3.3181 H   0  0  0  0  0  0  0  0  0  0  0  0
    2.3789    3.0215    5.2133 H   0  0  0  0  0  0  0  0  0  0  0  0
    3.2049    3.9570    6.9894 H   0  0  0  0  0  0  0  0  0  0  0  0
    4.8385    4.4436    9.1332 H   0  0  0  0  0  0  0  0  0  0  0  0
    6.0620    0.8638    7.4089 H   0  0  0  0  0  0  0  0  0  0  0  0
    5.1972   -0.2265    5.7696 H   0  0  0  0  0  0  0  0  0  0  0  0
    1.1897    1.2318   -2.0602 H   0  0  0  0  0  0  0  0  0  0  0  0
    0.7123    3.1181   -3.2393 H   0  0  0  0  0  0  0  0  0  0  0  0
   -0.6747    3.9240   -5.0817 H   0  0  0  0  0  0  0  0  0  0  0  0
   -0.0887    3.3849   -7.4334 H   0  0  0  0  0  0  0  0  0  0  0  0
    1.9439    2.0236   -7.9084 H   0  0  0  0  0  0  0  0  0  0  0  0
    4.8705    1.4763   -4.2821 H   0  0  0  0  0  0  0  0  0  0  0  0
    5.9722   -0.2459   -0.8464 H   0  0  0  0  0  0  0  0  0  0  0  0
  1  2  2  0  0  0  0
  2  3  1  0  0  0  0
  2 16  1  0  0  0  0
  3  4  1  0  0  0  0
  3 30  1  0  0  0  0
  4  5  1  0  0  0  0
  4 31  1  0  0  0  0
  4 32  1  0  0  0  0
  5  6  2  0  0  0  0
  5 15  1  0  0  0  0
  6  7  1  0  0  0  0
  6 33  1  0  0  0  0
  7  8  2  0  0  0  0
  7 34  1  0  0  0  0
  8  9  1  0  0  0  0
  8 14  1  0  0  0  0
  9 10  1  0  0  0  0
  9 13  1  0  0  0  0
 10 11  2  0  0  0  0
 10 35  1  0  0  0  0
 11 12  1  0  0  0  0
 11 36  1  0  0  0  0
 12 13  2  0  0  0  0
 13 37  1  0  0  0  0
 14 15  2  0  0  0  0
 14 38  1  0  0  0  0
 16 17  2  0  0  0  0
 16 28  1  0  0  0  0
 17 18  1  0  0  0  0
 17 39  1  0  0  0  0
 18 19  1  0  0  0  0
 18 26  2  0  0  0  0
 19 20  2  0  0  0  0
 19 24  1  0  0  0  0
 20 21  1  0  0  0  0
 20 40  1  0  0  0  0
 21 22  2  0  0  0  0
 21 41  1  0  0  0  0
 22 23  1  0  0  0  0
 22 42  1  0  0  0  0
 23 24  2  0  0  0  0
 23 43  1  0  0  0  0
 24 25  1  0  0  0  0
 26 27  1  0  0  0  0
 26 44  1  0  0  0  0
 27 28  2  0  0  0  0
 28 29  1  0  0  0  0
 29 45  1  0  0  0  0
M  END
$$$$
