
 OpenBabel01122422363D

 47 50  0  0  0  0  0  0  0  0999 V2000
    1.3619    0.4218   -0.8562 C   0  0  0  0  0  0  0  0  0  0  0  0
    2.0969   -0.8346   -1.2432 C   0  0  0  0  0  0  0  0  0  0  0  0
    3.4099   -0.9030   -1.5452 C   0  0  0  0  0  0  0  0  0  0  0  0
    4.3864    0.0767   -1.3973 N   0  0  0  0  0  0  0  0  0  0  0  0
    4.4365    1.0984   -0.4628 C   0  0  0  0  0  0  0  0  0  0  0  0
    3.6154    1.3056    0.4244 O   0  0  0  0  0  0  0  0  0  0  0  0
    5.6532    1.9737   -0.5288 C   0  0  0  0  0  0  0  0  0  0  0  0
    5.7652    3.0633    0.3332 C   0  0  0  0  0  0  0  0  0  0  0  0
    6.9084    3.8671    0.2680 C   0  0  0  0  0  0  0  0  0  0  0  0
    7.9128    3.5665   -0.6504 C   0  0  0  0  0  0  0  0  0  0  0  0
    9.3862    4.5384   -0.9061 S   0  0  0  0  0  0  0  0  0  0  0  0
    9.7586    5.2060    0.7547 C   0  0  0  0  0  0  0  0  0  0  0  0
   11.0390    6.0119    0.7444 C   0  0  0  0  0  0  0  0  0  0  0  0
   11.0166    7.3776    0.4197 C   0  0  0  0  0  0  0  0  0  0  0  0
   12.1962    8.1261    0.4048 C   0  0  0  0  0  0  0  0  0  0  0  0
   13.4126    7.5189    0.7095 C   0  0  0  0  0  0  0  0  0  0  0  0
   13.4516    6.1611    1.0214 C   0  0  0  0  0  0  0  0  0  0  0  0
   12.2727    5.4103    1.0357 C   0  0  0  0  0  0  0  0  0  0  0  0
    7.6956    2.4566   -1.4751 C   0  0  0  0  0  0  0  0  0  0  0  0
    6.6016    1.6474   -1.4410 N   0  0  0  0  0  0  0  0  0  0  0  0
    3.8841   -2.1962   -2.1673 C   0  0  0  0  0  0  0  0  0  0  0  0
    5.0507   -2.2686   -2.5680 O   0  0  0  0  0  0  0  0  0  0  0  0
    2.9621   -3.2331   -2.2424 N   0  0  0  0  0  0  0  0  0  0  0  0
    3.3347   -4.4646   -2.7766 C   0  0  0  0  0  0  0  0  0  0  0  0
    2.4759   -5.4913   -2.8535 C   0  0  0  0  0  0  0  0  0  0  0  0
    1.1295   -5.3408   -2.3676 C   0  0  0  0  0  0  0  0  0  0  0  0
    0.7241   -4.1722   -1.8602 C   0  0  0  0  0  0  0  0  0  0  0  0
    1.6697   -3.0232   -1.7968 C   0  0  0  0  0  0  0  0  0  0  0  0
    1.2321   -1.8990   -1.3353 N   0  0  0  0  0  0  0  0  0  0  0  0
    1.8309    1.3231   -1.2593 H   0  0  0  0  0  0  0  0  0  0  0  0
    1.2657    0.4912    0.2311 H   0  0  0  0  0  0  0  0  0  0  0  0
    0.3477    0.4080   -1.2736 H   0  0  0  0  0  0  0  0  0  0  0  0
    5.2722   -0.1102   -1.8746 H   0  0  0  0  0  0  0  0  0  0  0  0
    4.9716    3.2913    1.0401 H   0  0  0  0  0  0  0  0  0  0  0  0
    6.9721    4.7276    0.9266 H   0  0  0  0  0  0  0  0  0  0  0  0
    9.8435    4.3833    1.4738 H   0  0  0  0  0  0  0  0  0  0  0  0
    8.9400    5.8506    1.0921 H   0  0  0  0  0  0  0  0  0  0  0  0
   10.0774    7.8670    0.1704 H   0  0  0  0  0  0  0  0  0  0  0  0
   12.1651    9.1827    0.1507 H   0  0  0  0  0  0  0  0  0  0  0  0
   14.3301    8.1020    0.6973 H   0  0  0  0  0  0  0  0  0  0  0  0
   14.4024    5.6857    1.2504 H   0  0  0  0  0  0  0  0  0  0  0  0
   12.3261    4.3500    1.2723 H   0  0  0  0  0  0  0  0  0  0  0  0
    8.4309    2.1765   -2.2272 H   0  0  0  0  0  0  0  0  0  0  0  0
    4.3574   -4.5611   -3.1318 H   0  0  0  0  0  0  0  0  0  0  0  0
    2.7702   -6.4483   -3.2728 H   0  0  0  0  0  0  0  0  0  0  0  0
    0.4546   -6.1891   -2.4178 H   0  0  0  0  0  0  0  0  0  0  0  0
   -0.2765   -4.0099   -1.4794 H   0  0  0  0  0  0  0  0  0  0  0  0
  1  2  1  0  0  0  0
  1 30  1  0  0  0  0
  1 31  1  0  0  0  0
  1 32  1  0  0  0  0
  2  3  2  0  0  0  0
  2 29  1  0  0  0  0
  3  4  1  0  0  0  0
  3 21  1  0  0  0  0
  4  5  1  0  0  0  0
  4 33  1  0  0  0  0
  5  6  2  0  0  0  0
  5  7  1  0  0  0  0
  7  8  2  0  0  0  0
  7 20  1  0  0  0  0
  8  9  1  0  0  0  0
  8 34  1  0  0  0  0
  9 10  2  0  0  0  0
  9 35  1  0  0  0  0
 10 11  1  0  0  0  0
 10 19  1  0  0  0  0
 11 12  1  0  0  0  0
 12 13  1  0  0  0  0
 12 36  1  0  0  0  0
 12 37  1  0  0  0  0
 13 14  2  0  0  0  0
 13 18  1  0  0  0  0
 14 15  1  0  0  0  0
 14 38  1  0  0  0  0
 15 16  2  0  0  0  0
 15 39  1  0  0  0  0
 16 17  1  0  0  0  0
 16 40  1  0  0  0  0
 17 18  2  0  0  0  0
 17 41  1  0  0  0  0
 18 42  1  0  0  0  0
 19 20  2  0  0  0  0
 19 43  1  0  0  0  0
 21 22  2  0  0  0  0
 21 23  1  0  0  0  0
 23 24  1  0  0  0  0
 23 28  1  0  0  0  0
 24 25  2  0  0  0  0
 24 44  1  0  0  0  0
 25 26  1  0  0  0  0
 25 45  1  0  0  0  0
 26 27  2  0  0  0  0
 26 46  1  0  0  0  0
 27 28  1  0  0  0  0
 27 47  1  0  0  0  0
 28 29  2  0  0  0  0
M  END
$$$$
