
 OpenBabel01122422363D

 52 55  0  0  0  0  0  0  0  0999 V2000
    2.0212   -3.9033    0.3791 C   0  0  0  0  0  0  0  0  0  0  0  0
    2.6091   -2.6473    0.6979 O   0  0  0  0  0  0  0  0  0  0  0  0
    3.5423   -2.1576   -0.1757 C   0  0  0  0  0  0  0  0  0  0  0  0
    3.6522   -2.5863   -1.5068 C   0  0  0  0  0  0  0  0  0  0  0  0
    4.6345   -2.0674   -2.3554 C   0  0  0  0  0  0  0  0  0  0  0  0
    4.7828   -2.5793   -3.7588 C   0  0  0  0  0  0  0  0  0  0  0  0
    5.4895   -1.0738   -1.8727 C   0  0  0  0  0  0  0  0  0  0  0  0
    5.3720   -0.6244   -0.5546 C   0  0  0  0  0  0  0  0  0  0  0  0
    4.4133   -1.1684    0.3181 C   0  0  0  0  0  0  0  0  0  0  0  0
    4.3793   -0.7066    1.7693 C   0  0  0  0  0  0  0  0  0  0  0  0
    3.5817    0.4985    1.9734 N   0  0  0  0  0  0  0  0  0  0  0  0
    2.2621    0.3428    2.3639 C   0  0  0  0  0  0  0  0  0  0  0  0
    1.7505   -0.7123    2.7328 O   0  0  0  0  0  0  0  0  0  0  0  0
    1.4884    1.4707    2.3595 N   0  0  0  0  0  0  0  0  0  0  0  0
    1.9860    2.7483    2.1350 C   0  0  0  0  0  0  0  0  0  0  0  0
    1.1153    3.8356    2.0462 C   0  0  0  0  0  0  0  0  0  0  0  0
    1.6232    5.1269    1.8781 C   0  0  0  0  0  0  0  0  0  0  0  0
    0.6890    6.0777    1.5720 O   0  0  0  0  0  0  0  0  0  0  0  0
    0.9080    7.4208    2.0090 C   0  0  0  0  0  0  0  0  0  0  0  0
    1.7511    8.3087    1.1134 C   0  0  0  0  0  0  0  0  0  0  0  0
    2.2978    7.8785   -0.1034 C   0  0  0  0  0  0  0  0  0  0  0  0
    3.2148    8.6785   -0.7893 C   0  0  0  0  0  0  0  0  0  0  0  0
    3.5502    9.9385   -0.2982 C   0  0  0  0  0  0  0  0  0  0  0  0
    2.9426   10.4158    0.8597 C   0  0  0  0  0  0  0  0  0  0  0  0
    2.0458    9.6076    1.5590 C   0  0  0  0  0  0  0  0  0  0  0  0
    3.0056    5.3271    1.8934 C   0  0  0  0  0  0  0  0  0  0  0  0
    3.8736    4.2278    1.9366 C   0  0  0  0  0  0  0  0  0  0  0  0
    3.3553    2.9335    2.0138 C   0  0  0  0  0  0  0  0  0  0  0  0
    4.2201    1.7366    1.9212 C   0  0  0  0  0  0  0  0  0  0  0  0
    5.4329    1.8843    1.8040 O   0  0  0  0  0  0  0  0  0  0  0  0
    1.3839   -4.1998    1.2175 H   0  0  0  0  0  0  0  0  0  0  0  0
    2.7900   -4.6731    0.2528 H   0  0  0  0  0  0  0  0  0  0  0  0
    1.3821   -3.8351   -0.5069 H   0  0  0  0  0  0  0  0  0  0  0  0
    2.9748   -3.3330   -1.9082 H   0  0  0  0  0  0  0  0  0  0  0  0
    4.0617   -3.3757   -3.9728 H   0  0  0  0  0  0  0  0  0  0  0  0
    5.7852   -2.9957   -3.9035 H   0  0  0  0  0  0  0  0  0  0  0  0
    4.6167   -1.7731   -4.4796 H   0  0  0  0  0  0  0  0  0  0  0  0
    6.2572   -0.6493   -2.5160 H   0  0  0  0  0  0  0  0  0  0  0  0
    6.0574    0.1465   -0.2001 H   0  0  0  0  0  0  0  0  0  0  0  0
    5.4105   -0.5232    2.0970 H   0  0  0  0  0  0  0  0  0  0  0  0
    4.0165   -1.5161    2.4136 H   0  0  0  0  0  0  0  0  0  0  0  0
    0.5128    1.3248    2.5810 H   0  0  0  0  0  0  0  0  0  0  0  0
    0.0402    3.6862    2.0706 H   0  0  0  0  0  0  0  0  0  0  0  0
    1.3223    7.4147    3.0262 H   0  0  0  0  0  0  0  0  0  0  0  0
   -0.0879    7.8782    2.0730 H   0  0  0  0  0  0  0  0  0  0  0  0
    2.0588    6.8949   -0.5028 H   0  0  0  0  0  0  0  0  0  0  0  0
    3.6834    8.3084   -1.6979 H   0  0  0  0  0  0  0  0  0  0  0  0
    4.2833   10.5489   -0.8189 H   0  0  0  0  0  0  0  0  0  0  0  0
    3.1827   11.4083    1.2317 H   0  0  0  0  0  0  0  0  0  0  0  0
    1.5959    9.9878    2.4739 H   0  0  0  0  0  0  0  0  0  0  0  0
    3.4446    6.3150    1.7994 H   0  0  0  0  0  0  0  0  0  0  0  0
    4.9491    4.3880    1.8743 H   0  0  0  0  0  0  0  0  0  0  0  0
  1  2  1  0  0  0  0
  1 31  1  0  0  0  0
  1 32  1  0  0  0  0
  1 33  1  0  0  0  0
  2  3  1  0  0  0  0
  3  4  2  0  0  0  0
  3  9  1  0  0  0  0
  4  5  1  0  0  0  0
  4 34  1  0  0  0  0
  5  6  1  0  0  0  0
  5  7  2  0  0  0  0
  6 35  1  0  0  0  0
  6 36  1  0  0  0  0
  6 37  1  0  0  0  0
  7  8  1  0  0  0  0
  7 38  1  0  0  0  0
  8  9  2  0  0  0  0
  8 39  1  0  0  0  0
  9 10  1  0  0  0  0
 10 11  1  0  0  0  0
 10 40  1  0  0  0  0
 10 41  1  0  0  0  0
 11 12  1  0  0  0  0
 11 29  1  0  0  0  0
 12 13  2  0  0  0  0
 12 14  1  0  0  0  0
 14 15  1  0  0  0  0
 14 42  1  0  0  0  0
 15 16  2  0  0  0  0
 15 28  1  0  0  0  0
 16 17  1  0  0  0  0
 16 43  1  0  0  0  0
 17 18  1  0  0  0  0
 17 26  2  0  0  0  0
 18 19  1  0  0  0  0
 19 20  1  0  0  0  0
 19 44  1  0  0  0  0
 19 45  1  0  0  0  0
 20 21  2  0  0  0  0
 20 25  1  0  0  0  0
 21 22  1  0  0  0  0
 21 46  1  0  0  0  0
 22 23  2  0  0  0  0
 22 47  1  0  0  0  0
 23 24  1  0  0  0  0
 23 48  1  0  0  0  0
 24 25  2  0  0  0  0
 24 49  1  0  0  0  0
 25 50  1  0  0  0  0
 26 27  1  0  0  0  0
 26 51  1  0  0  0  0
 27 28  2  0  0  0  0
 27 52  1  0  0  0  0
 28 29  1  0  0  0  0
 29 30  2  0  0  0  0
M  END
$$$$
