
 OpenBabel01122422363D

 50 52  0  0  1  0  0  0  0  0999 V2000
    0.9484    0.3927   -1.1383 O   0  0  0  0  0  0  0  0  0  0  0  0
    2.1610    0.5613   -0.9755 C   0  0  0  0  0  0  0  0  0  0  0  0
    2.7612    1.9621   -0.8880 C   0  0  0  0  0  0  0  0  0  0  0  0
    3.0019    2.5418   -2.1938 N   0  0  0  0  0  0  0  0  0  0  0  0
    4.1091    3.3392   -2.4178 C   0  0  0  0  0  0  0  0  0  0  0  0
    4.9776    3.4909   -1.5610 O   0  0  0  0  0  0  0  0  0  0  0  0
    4.1675    4.0137   -3.7590 C   0  0  0  0  0  0  0  0  0  0  0  0
    2.9674    4.1541   -4.4036 N   0  0  0  0  0  0  0  0  0  0  0  0
    2.9944    4.8011   -5.5921 C   0  0  0  0  0  0  0  0  0  0  0  0
    4.1494    5.2959   -6.1817 C   0  0  0  0  0  0  0  0  0  0  0  0
    5.3617    5.1186   -5.5210 C   0  0  0  0  0  0  0  0  0  0  0  0
    5.3781    4.4659   -4.2913 C   0  0  0  0  0  0  0  0  0  0  0  0
    6.5692    4.2501   -3.6668 O   0  0  0  0  0  0  0  0  0  0  0  0
    2.9649   -0.5384   -0.9236 N   0  0  0  0  0  0  0  0  0  0  0  0
    4.4057   -0.6209   -1.1355 C   0  0  3  0  0  0  0  0  0  0  0  0
    5.0454   -1.4597   -0.0322 C   0  0  0  0  0  0  0  0  0  0  0  0
    4.6908   -2.8047    0.1699 C   0  0  0  0  0  0  0  0  0  0  0  0
    5.3757   -3.5892    1.1007 C   0  0  0  0  0  0  0  0  0  0  0  0
    6.4202   -3.0420    1.8426 C   0  0  0  0  0  0  0  0  0  0  0  0
    6.7624   -1.7018    1.6776 C   0  0  0  0  0  0  0  0  0  0  0  0
    6.0752   -0.9126    0.7532 C   0  0  0  0  0  0  0  0  0  0  0  0
    4.7767   -1.1364   -2.5339 C   0  0  0  0  0  0  0  0  0  0  0  0
    3.8237   -1.4944   -3.5014 C   0  0  0  0  0  0  0  0  0  0  0  0
    4.2126   -1.8979   -4.7862 C   0  0  0  0  0  0  0  0  0  0  0  0
    5.5616   -1.9287   -5.1349 C   0  0  0  0  0  0  0  0  0  0  0  0
    6.0502   -2.2408   -6.3714 O   0  0  0  0  0  0  0  0  0  0  0  0
    5.2003   -1.8907   -7.4519 C   0  0  0  0  0  0  0  0  0  0  0  0
    5.9916   -1.6623   -8.5331 F   0  0  0  0  0  0  0  0  0  0  0  0
    4.4261   -2.9621   -7.7548 F   0  0  0  0  0  0  0  0  0  0  0  0
    6.5227   -1.6384   -4.1687 C   0  0  0  0  0  0  0  0  0  0  0  0
    6.1361   -1.2377   -2.8878 C   0  0  0  0  0  0  0  0  0  0  0  0
    3.6646    1.9546   -0.2729 H   0  0  0  0  0  0  0  0  0  0  0  0
    2.0427    2.6085   -0.3710 H   0  0  0  0  0  0  0  0  0  0  0  0
    2.2482    2.5941   -2.8745 H   0  0  0  0  0  0  0  0  0  0  0  0
    2.0309    4.9223   -6.0813 H   0  0  0  0  0  0  0  0  0  0  0  0
    4.1093    5.8040   -7.1397 H   0  0  0  0  0  0  0  0  0  0  0  0
    6.2764    5.4873   -5.9754 H   0  0  0  0  0  0  0  0  0  0  0  0
    7.2971    4.6417   -4.1735 H   0  0  0  0  0  0  0  0  0  0  0  0
    2.4520   -1.4045   -0.9718 H   0  0  0  0  0  0  0  0  0  0  0  0
    4.8133    0.3933   -1.0876 H   0  0  0  0  0  0  0  0  0  0  0  0
    3.8984   -3.2619   -0.4181 H   0  0  0  0  0  0  0  0  0  0  0  0
    5.1064   -4.6342    1.2328 H   0  0  0  0  0  0  0  0  0  0  0  0
    6.9711   -3.6616    2.5453 H   0  0  0  0  0  0  0  0  0  0  0  0
    7.5761   -1.2740    2.2580 H   0  0  0  0  0  0  0  0  0  0  0  0
    6.3709    0.1277    0.6281 H   0  0  0  0  0  0  0  0  0  0  0  0
    2.7590   -1.4586   -3.2801 H   0  0  0  0  0  0  0  0  0  0  0  0
    3.4371   -2.1873   -5.4903 H   0  0  0  0  0  0  0  0  0  0  0  0
    4.5815   -1.0037   -7.2839 H   0  0  0  0  0  0  0  0  0  0  0  0
    7.5797   -1.7010   -4.4158 H   0  0  0  0  0  0  0  0  0  0  0  0
    6.9136   -0.9997   -2.1640 H   0  0  0  0  0  0  0  0  0  0  0  0
  1  2  2  0  0  0  0
  2  3  1  0  0  0  0
  2 14  1  0  0  0  0
  3  4  1  0  0  0  0
  3 32  1  0  0  0  0
  3 33  1  0  0  0  0
  4  5  1  0  0  0  0
  4 34  1  0  0  0  0
  5  6  2  0  0  0  0
  5  7  1  0  0  0  0
  7  8  2  0  0  0  0
  7 12  1  0  0  0  0
  8  9  1  0  0  0  0
  9 10  2  0  0  0  0
  9 35  1  0  0  0  0
 10 11  1  0  0  0  0
 10 36  1  0  0  0  0
 11 12  2  0  0  0  0
 11 37  1  0  0  0  0
 12 13  1  0  0  0  0
 13 38  1  0  0  0  0
 14 15  1  0  0  0  0
 14 39  1  0  0  0  0
 15 16  1  0  0  0  0
 15 22  1  0  0  0  0
 15 40  1  0  0  0  0
 16 17  2  0  0  0  0
 16 21  1  0  0  0  0
 17 18  1  0  0  0  0
 17 41  1  0  0  0  0
 18 19  2  0  0  0  0
 18 42  1  0  0  0  0
 19 20  1  0  0  0  0
 19 43  1  0  0  0  0
 20 21  2  0  0  0  0
 20 44  1  0  0  0  0
 21 45  1  0  0  0  0
 22 23  2  0  0  0  0
 22 31  1  0  0  0  0
 23 24  1  0  0  0  0
 23 46  1  0  0  0  0
 24 25  2  0  0  0  0
 24 47  1  0  0  0  0
 25 26  1  0  0  0  0
 25 30  1  0  0  0  0
 26 27  1  0  0  0  0
 27 28  1  0  0  0  0
 27 29  1  0  0  0  0
 27 48  1  0  0  0  0
 30 31  2  0  0  0  0
 30 49  1  0  0  0  0
 31 50  1  0  0  0  0
M  END
$$$$
