
 OpenBabel01122422353D

 49 52  0  0  0  0  0  0  0  0999 V2000
    0.9253    0.2833    0.4246 O   0  0  0  0  0  0  0  0  0  0  0  0
    2.0906    0.0412    0.1305 C   0  0  0  0  0  0  0  0  0  0  0  0
    2.8179   -0.9272    0.7895 N   0  0  0  0  0  0  0  0  0  0  0  0
    2.2280   -1.5981    1.9234 C   0  0  0  0  0  0  0  0  0  0  0  0
    2.8972   -2.9011    2.1415 C   0  0  0  0  0  0  0  0  0  0  0  0
    3.9863   -3.2106    2.9337 C   0  0  0  0  0  0  0  0  0  0  0  0
    4.1150   -4.6051    2.8586 C   0  0  0  0  0  0  0  0  0  0  0  0
    3.1895   -5.1564    2.0785 N   0  0  0  0  0  0  0  0  0  0  0  0
    2.4719   -4.1039    1.6157 N   0  0  0  0  0  0  0  0  0  0  0  0
    1.3582   -4.3723    0.7063 C   0  0  0  0  0  0  0  0  0  0  0  0
    1.7901   -4.3554   -0.7409 C   0  0  0  0  0  0  0  0  0  0  0  0
    2.7820   -5.2355   -1.2056 C   0  0  0  0  0  0  0  0  0  0  0  0
    3.2041   -5.1969   -2.5344 C   0  0  0  0  0  0  0  0  0  0  0  0
    2.6244   -4.2940   -3.4216 C   0  0  0  0  0  0  0  0  0  0  0  0
    1.6085   -3.4448   -2.9851 C   0  0  0  0  0  0  0  0  0  0  0  0
    1.1901   -3.4763   -1.6530 C   0  0  0  0  0  0  0  0  0  0  0  0
    2.7973    0.8102   -0.9407 C   0  0  0  0  0  0  0  0  0  0  0  0
    2.2419    1.9822   -1.3022 C   0  0  0  0  0  0  0  0  0  0  0  0
    2.7596    2.7834   -2.3199 N   0  0  0  0  0  0  0  0  0  0  0  0
    2.0845    3.9860   -2.7183 C   0  0  0  0  0  0  0  0  0  0  0  0
    2.7970    5.1739   -2.9377 C   0  0  0  0  0  0  0  0  0  0  0  0
    2.1325    6.3411   -3.3322 C   0  0  0  0  0  0  0  0  0  0  0  0
    0.7541    6.3292   -3.5423 C   0  0  0  0  0  0  0  0  0  0  0  0
    0.0339    5.1554   -3.3359 C   0  0  0  0  0  0  0  0  0  0  0  0
    0.6945    4.0037   -2.9117 C   0  0  0  0  0  0  0  0  0  0  0  0
   -0.0307    2.8843   -2.7595 F   0  0  0  0  0  0  0  0  0  0  0  0
    3.9000    2.3842   -3.0415 C   0  0  0  0  0  0  0  0  0  0  0  0
    4.4231    2.9874   -3.9766 O   0  0  0  0  0  0  0  0  0  0  0  0
    4.4803    1.0639   -2.6560 C   0  0  0  0  0  0  0  0  0  0  0  0
    3.9508    0.3324   -1.6664 C   0  0  0  0  0  0  0  0  0  0  0  0
    3.8232   -0.9598    0.6900 H   0  0  0  0  0  0  0  0  0  0  0  0
    1.1481   -1.7083    1.7879 H   0  0  0  0  0  0  0  0  0  0  0  0
    2.3734   -0.9487    2.7948 H   0  0  0  0  0  0  0  0  0  0  0  0
    4.5822   -2.5248    3.5189 H   0  0  0  0  0  0  0  0  0  0  0  0
    4.8341   -5.2452    3.3526 H   0  0  0  0  0  0  0  0  0  0  0  0
    0.5741   -3.6352    0.9050 H   0  0  0  0  0  0  0  0  0  0  0  0
    0.9451   -5.3555    0.9634 H   0  0  0  0  0  0  0  0  0  0  0  0
    3.2412   -5.9538   -0.5271 H   0  0  0  0  0  0  0  0  0  0  0  0
    3.9862   -5.8714   -2.8734 H   0  0  0  0  0  0  0  0  0  0  0  0
    2.9580   -4.2583   -4.4548 H   0  0  0  0  0  0  0  0  0  0  0  0
    1.1411   -2.7555   -3.6839 H   0  0  0  0  0  0  0  0  0  0  0  0
    0.3925   -2.8066   -1.3359 H   0  0  0  0  0  0  0  0  0  0  0  0
    1.3620    2.3680   -0.7914 H   0  0  0  0  0  0  0  0  0  0  0  0
    3.8724    5.2097   -2.7812 H   0  0  0  0  0  0  0  0  0  0  0  0
    2.6969    7.2585   -3.4827 H   0  0  0  0  0  0  0  0  0  0  0  0
    0.2445    7.2307   -3.8735 H   0  0  0  0  0  0  0  0  0  0  0  0
   -1.0357    5.1217   -3.5162 H   0  0  0  0  0  0  0  0  0  0  0  0
    5.3209    0.7245   -3.2495 H   0  0  0  0  0  0  0  0  0  0  0  0
    4.3624   -0.6445   -1.4387 H   0  0  0  0  0  0  0  0  0  0  0  0
  1  2  2  0  0  0  0
  2  3  1  0  0  0  0
  2 17  1  0  0  0  0
  3  4  1  0  0  0  0
  3 31  1  0  0  0  0
  4  5  1  0  0  0  0
  4 32  1  0  0  0  0
  4 33  1  0  0  0  0
  5  6  2  0  0  0  0
  5  9  1  0  0  0  0
  6  7  1  0  0  0  0
  6 34  1  0  0  0  0
  7  8  2  0  0  0  0
  7 35  1  0  0  0  0
  8  9  1  0  0  0  0
  9 10  1  0  0  0  0
 10 11  1  0  0  0  0
 10 36  1  0  0  0  0
 10 37  1  0  0  0  0
 11 12  2  0  0  0  0
 11 16  1  0  0  0  0
 12 13  1  0  0  0  0
 12 38  1  0  0  0  0
 13 14  2  0  0  0  0
 13 39  1  0  0  0  0
 14 15  1  0  0  0  0
 14 40  1  0  0  0  0
 15 16  2  0  0  0  0
 15 41  1  0  0  0  0
 16 42  1  0  0  0  0
 17 18  2  0  0  0  0
 17 30  1  0  0  0  0
 18 19  1  0  0  0  0
 18 43  1  0  0  0  0
 19 20  1  0  0  0  0
 19 27  1  0  0  0  0
 20 21  2  0  0  0  0
 20 25  1  0  0  0  0
 21 22  1  0  0  0  0
 21 44  1  0  0  0  0
 22 23  2  0  0  0  0
 22 45  1  0  0  0  0
 23 24  1  0  0  0  0
 23 46  1  0  0  0  0
 24 25  2  0  0  0  0
 24 47  1  0  0  0  0
 25 26  1  0  0  0  0
 27 28  2  0  0  0  0
 27 29  1  0  0  0  0
 29 30  2  0  0  0  0
 29 48  1  0  0  0  0
 30 49  1  0  0  0  0
M  END
$$$$
