
 OpenBabel01122422363D

 48 51  0  0  0  0  0  0  0  0999 V2000
    2.0049    0.2717   -1.2002 O   0  0  0  0  0  0  0  0  0  0  0  0
    2.2197    0.0139   -0.0222 C   0  0  0  0  0  0  0  0  0  0  0  0
    2.9821   -1.2086    0.4581 C   0  0  0  0  0  0  0  0  0  0  0  0
    2.0796   -2.2851    0.6801 O   0  0  0  0  0  0  0  0  0  0  0  0
    2.6275   -3.4827    1.0612 C   0  0  0  0  0  0  0  0  0  0  0  0
    3.9897   -3.7344    1.2423 C   0  0  0  0  0  0  0  0  0  0  0  0
    4.4268   -5.0086    1.6103 C   0  0  0  0  0  0  0  0  0  0  0  0
    3.5058   -6.0343    1.8114 C   0  0  0  0  0  0  0  0  0  0  0  0
    2.1378   -5.7813    1.6901 C   0  0  0  0  0  0  0  0  0  0  0  0
    1.1674   -6.7416    1.8801 O   0  0  0  0  0  0  0  0  0  0  0  0
    1.3433   -7.6704    2.9021 C   0  0  0  0  0  0  0  0  0  0  0  0
    0.6613   -8.8723    2.7743 C   0  0  0  0  0  0  0  0  0  0  0  0
    0.8312   -9.8372    3.7643 C   0  0  0  0  0  0  0  0  0  0  0  0
    1.6666   -9.5673    4.8435 C   0  0  0  0  0  0  0  0  0  0  0  0
    2.2825   -8.3299    4.9010 C   0  0  0  0  0  0  0  0  0  0  0  0
    2.1282   -7.3718    3.9634 N   0  0  0  0  0  0  0  0  0  0  0  0
    1.7067   -4.5147    1.2816 C   0  0  0  0  0  0  0  0  0  0  0  0
    1.8058    0.7696    1.0326 O   0  0  0  0  0  0  0  0  0  0  0  0
    1.0135    1.9278    0.7233 C   0  0  0  0  0  0  0  0  0  0  0  0
   -0.3355    1.7634    1.3613 C   0  0  0  0  0  0  0  0  0  0  0  0
   -1.1808    0.7205    0.9832 C   0  0  0  0  0  0  0  0  0  0  0  0
   -2.4168    0.5619    1.6053 C   0  0  0  0  0  0  0  0  0  0  0  0
   -2.7899    1.4648    2.5933 C   0  0  0  0  0  0  0  0  0  0  0  0
   -4.0327    1.3037    3.2690 N   0  0  0  0  0  0  0  0  0  0  0  0
   -4.9651    0.2980    3.1273 C   0  0  0  0  0  0  0  0  0  0  0  0
   -5.9791    0.5973    4.0063 C   0  0  0  0  0  0  0  0  0  0  0  0
   -5.7084    1.7511    4.6857 N   0  0  0  0  0  0  0  0  0  0  0  0
   -4.5392    2.1485    4.2317 C   0  0  0  0  0  0  0  0  0  0  0  0
   -2.0007    2.5093    2.9597 N   0  0  0  0  0  0  0  0  0  0  0  0
   -0.7991    2.6307    2.3433 C   0  0  0  0  0  0  0  0  0  0  0  0
    3.5187   -0.9463    1.3783 H   0  0  0  0  0  0  0  0  0  0  0  0
    3.7132   -1.4560   -0.3218 H   0  0  0  0  0  0  0  0  0  0  0  0
    4.7436   -2.9674    1.1031 H   0  0  0  0  0  0  0  0  0  0  0  0
    5.4866   -5.2053    1.7487 H   0  0  0  0  0  0  0  0  0  0  0  0
    3.8662   -7.0215    2.0880 H   0  0  0  0  0  0  0  0  0  0  0  0
    0.0219   -9.0580    1.9190 H   0  0  0  0  0  0  0  0  0  0  0  0
    0.3219  -10.7943    3.6927 H   0  0  0  0  0  0  0  0  0  0  0  0
    1.8319  -10.3018    5.6238 H   0  0  0  0  0  0  0  0  0  0  0  0
    2.9439   -8.0672    5.7220 H   0  0  0  0  0  0  0  0  0  0  0  0
    0.6450   -4.3275    1.1440 H   0  0  0  0  0  0  0  0  0  0  0  0
    0.8921    2.1059   -0.3511 H   0  0  0  0  0  0  0  0  0  0  0  0
    1.5373    2.7963    1.1373 H   0  0  0  0  0  0  0  0  0  0  0  0
   -0.8774    0.0191    0.2084 H   0  0  0  0  0  0  0  0  0  0  0  0
   -3.0445   -0.2642    1.2954 H   0  0  0  0  0  0  0  0  0  0  0  0
   -4.8451   -0.5324    2.4493 H   0  0  0  0  0  0  0  0  0  0  0  0
   -6.8871    0.0351    4.1841 H   0  0  0  0  0  0  0  0  0  0  0  0
   -4.0104    3.0370    4.5523 H   0  0  0  0  0  0  0  0  0  0  0  0
   -0.2023    3.4735    2.6837 H   0  0  0  0  0  0  0  0  0  0  0  0
  1  2  2  0  0  0  0
  2  3  1  0  0  0  0
  2 18  1  0  0  0  0
  3  4  1  0  0  0  0
  3 31  1  0  0  0  0
  3 32  1  0  0  0  0
  4  5  1  0  0  0  0
  5  6  2  0  0  0  0
  5 17  1  0  0  0  0
  6  7  1  0  0  0  0
  6 33  1  0  0  0  0
  7  8  2  0  0  0  0
  7 34  1  0  0  0  0
  8  9  1  0  0  0  0
  8 35  1  0  0  0  0
  9 10  1  0  0  0  0
  9 17  2  0  0  0  0
 10 11  1  0  0  0  0
 11 12  2  0  0  0  0
 11 16  1  0  0  0  0
 12 13  1  0  0  0  0
 12 36  1  0  0  0  0
 13 14  2  0  0  0  0
 13 37  1  0  0  0  0
 14 15  1  0  0  0  0
 14 38  1  0  0  0  0
 15 16  2  0  0  0  0
 15 39  1  0  0  0  0
 17 40  1  0  0  0  0
 18 19  1  0  0  0  0
 19 20  1  0  0  0  0
 19 41  1  0  0  0  0
 19 42  1  0  0  0  0
 20 21  2  0  0  0  0
 20 30  1  0  0  0  0
 21 22  1  0  0  0  0
 21 43  1  0  0  0  0
 22 23  2  0  0  0  0
 22 44  1  0  0  0  0
 23 24  1  0  0  0  0
 23 29  1  0  0  0  0
 24 25  1  0  0  0  0
 24 28  1  0  0  0  0
 25 26  2  0  0  0  0
 25 45  1  0  0  0  0
 26 27  1  0  0  0  0
 26 46  1  0  0  0  0
 27 28  2  0  0  0  0
 28 47  1  0  0  0  0
 29 30  2  0  0  0  0
 30 48  1  0  0  0  0
M  END
$$$$
