
 OpenBabel01122422363D

 41 44  0  0  0  0  0  0  0  0999 V2000
    1.1705    0.4405   -0.7458 O   0  0  0  0  0  0  0  0  0  0  0  0
    2.2395    0.0605   -0.2629 C   0  0  0  0  0  0  0  0  0  0  0  0
    2.6083    0.3033    1.0510 N   0  0  0  0  0  0  0  0  0  0  0  0
    1.8903    1.1772    1.9219 C   0  0  0  0  0  0  0  0  0  0  0  0
    0.9764    2.1240    1.4379 C   0  0  0  0  0  0  0  0  0  0  0  0
    0.2032    2.9302    2.2878 C   0  0  0  0  0  0  0  0  0  0  0  0
   -0.8423    3.7980    1.7444 C   0  0  0  0  0  0  0  0  0  0  0  0
   -1.5400    4.7241    2.3750 N   0  0  0  0  0  0  0  0  0  0  0  0
   -2.4345    5.2305    1.4626 N   0  0  0  0  0  0  0  0  0  0  0  0
   -2.3052    4.6317    0.2843 N   0  0  0  0  0  0  0  0  0  0  0  0
   -1.3241    3.7412    0.4592 N   0  0  0  0  0  0  0  0  0  0  0  0
    0.4323    2.8497    3.6652 C   0  0  0  0  0  0  0  0  0  0  0  0
    1.3789    1.9496    4.1702 C   0  0  0  0  0  0  0  0  0  0  0  0
    2.0904    1.1180    3.3026 C   0  0  0  0  0  0  0  0  0  0  0  0
    2.9560    0.2284    3.8123 F   0  0  0  0  0  0  0  0  0  0  0  0
    3.1616   -0.6675   -1.1829 C   0  0  0  0  0  0  0  0  0  0  0  0
    2.7968   -0.5906   -2.5438 C   0  0  0  0  0  0  0  0  0  0  0  0
    3.5866   -1.1851   -3.5059 C   0  0  0  0  0  0  0  0  0  0  0  0
    4.7391   -1.8053   -3.2175 N   0  0  0  0  0  0  0  0  0  0  0  0
    5.0838   -1.8673   -1.9097 C   0  0  0  0  0  0  0  0  0  0  0  0
    4.3137   -1.3790   -0.8455 C   0  0  0  0  0  0  0  0  0  0  0  0
    4.6685   -1.5996    0.4705 O   0  0  0  0  0  0  0  0  0  0  0  0
    5.3077   -2.7998    0.7515 C   0  0  0  0  0  0  0  0  0  0  0  0
    6.4352   -2.7597    1.5755 C   0  0  0  0  0  0  0  0  0  0  0  0
    7.1674   -3.9322    1.8072 C   0  0  0  0  0  0  0  0  0  0  0  0
    6.7626   -5.1263    1.2157 C   0  0  0  0  0  0  0  0  0  0  0  0
    7.4883   -6.2365    1.4020 F   0  0  0  0  0  0  0  0  0  0  0  0
    5.6205   -5.1815    0.4280 C   0  0  0  0  0  0  0  0  0  0  0  0
    4.8719   -4.0220    0.2223 C   0  0  0  0  0  0  0  0  0  0  0  0
    3.3569   -0.2435    1.4671 H   0  0  0  0  0  0  0  0  0  0  0  0
    0.8696    2.2610    0.3687 H   0  0  0  0  0  0  0  0  0  0  0  0
   -1.0637    3.1312   -0.3066 H   0  0  0  0  0  0  0  0  0  0  0  0
   -0.1313    3.4787    4.3536 H   0  0  0  0  0  0  0  0  0  0  0  0
    1.5456    1.8773    5.2418 H   0  0  0  0  0  0  0  0  0  0  0  0
    1.8976   -0.0686   -2.8616 H   0  0  0  0  0  0  0  0  0  0  0  0
    3.3063   -1.1632   -4.5551 H   0  0  0  0  0  0  0  0  0  0  0  0
    6.0307   -2.3761   -1.7437 H   0  0  0  0  0  0  0  0  0  0  0  0
    6.7730   -1.8246    2.0161 H   0  0  0  0  0  0  0  0  0  0  0  0
    8.0575   -3.9237    2.4273 H   0  0  0  0  0  0  0  0  0  0  0  0
    5.3290   -6.1194   -0.0356 H   0  0  0  0  0  0  0  0  0  0  0  0
    3.9798   -4.0778   -0.3963 H   0  0  0  0  0  0  0  0  0  0  0  0
  1  2  2  0  0  0  0
  2  3  1  0  0  0  0
  2 16  1  0  0  0  0
  3  4  1  0  0  0  0
  3 30  1  0  0  0  0
  4  5  2  0  0  0  0
  4 14  1  0  0  0  0
  5  6  1  0  0  0  0
  5 31  1  0  0  0  0
  6  7  1  0  0  0  0
  6 12  2  0  0  0  0
  7  8  2  0  0  0  0
  7 11  1  0  0  0  0
  8  9  1  0  0  0  0
  9 10  2  0  0  0  0
 10 11  1  0  0  0  0
 11 32  1  0  0  0  0
 12 13  1  0  0  0  0
 12 33  1  0  0  0  0
 13 14  2  0  0  0  0
 13 34  1  0  0  0  0
 14 15  1  0  0  0  0
 16 17  2  0  0  0  0
 16 21  1  0  0  0  0
 17 18  1  0  0  0  0
 17 35  1  0  0  0  0
 18 19  2  0  0  0  0
 18 36  1  0  0  0  0
 19 20  1  0  0  0  0
 20 21  2  0  0  0  0
 20 37  1  0  0  0  0
 21 22  1  0  0  0  0
 22 23  1  0  0  0  0
 23 24  2  0  0  0  0
 23 29  1  0  0  0  0
 24 25  1  0  0  0  0
 24 38  1  0  0  0  0
 25 26  2  0  0  0  0
 25 39  1  0  0  0  0
 26 27  1  0  0  0  0
 26 28  1  0  0  0  0
 28 29  2  0  0  0  0
 28 40  1  0  0  0  0
 29 41  1  0  0  0  0
M  END
$$$$
