
 OpenBabel01122422363D

 45 48  0  0  0  0  0  0  0  0999 V2000
    2.9417    0.7986    2.4588 O   0  0  0  0  0  0  0  0  0  0  0  0
    2.3942    0.9045    1.3635 C   0  0  0  0  0  0  0  0  0  0  0  0
    0.8859    0.7887    1.1867 C   0  0  0  0  0  0  0  0  0  0  0  0
    0.1895    2.1171    1.3159 C   0  0  0  0  0  0  0  0  0  0  0  0
   -0.5202    2.6574    0.2966 C   0  0  0  0  0  0  0  0  0  0  0  0
   -1.1597    3.9152    0.4691 C   0  0  0  0  0  0  0  0  0  0  0  0
   -1.9199    4.7662   -0.2999 C   0  0  0  0  0  0  0  0  0  0  0  0
   -2.2692    5.8884    0.4113 N   0  0  0  0  0  0  0  0  0  0  0  0
   -1.7309    5.7236    1.6015 C   0  0  0  0  0  0  0  0  0  0  0  0
   -1.0446    4.5395    1.7000 N   0  0  0  0  0  0  0  0  0  0  0  0
   -0.3441    3.9918    2.7682 C   0  0  0  0  0  0  0  0  0  0  0  0
    0.2667    2.8048    2.6105 C   0  0  0  0  0  0  0  0  0  0  0  0
    3.0896    1.1229    0.1942 N   0  0  0  0  0  0  0  0  0  0  0  0
    4.5284    1.2300    0.1831 C   0  0  0  0  0  0  0  0  0  0  0  0
    5.0172    2.6468    0.3702 C   0  0  0  0  0  0  0  0  0  0  0  0
    5.3261    3.1077    1.6438 C   0  0  0  0  0  0  0  0  0  0  0  0
    5.9632    4.3394    1.7720 C   0  0  0  0  0  0  0  0  0  0  0  0
    6.4292    4.8464    2.9651 O   0  0  0  0  0  0  0  0  0  0  0  0
    6.9257    3.9866    3.9225 C   0  0  0  0  0  0  0  0  0  0  0  0
    7.5976    2.7883    3.6380 C   0  0  0  0  0  0  0  0  0  0  0  0
    8.0038    1.9461    4.6755 C   0  0  0  0  0  0  0  0  0  0  0  0
    7.7990    2.3376    5.9929 C   0  0  0  0  0  0  0  0  0  0  0  0
    8.1874    1.5268    6.9862 F   0  0  0  0  0  0  0  0  0  0  0  0
    7.2055    3.5623    6.2770 C   0  0  0  0  0  0  0  0  0  0  0  0
    7.0443    3.9519    7.5491 F   0  0  0  0  0  0  0  0  0  0  0  0
    6.7669    4.3917    5.2492 C   0  0  0  0  0  0  0  0  0  0  0  0
    6.1323    5.1398    0.6496 C   0  0  0  0  0  0  0  0  0  0  0  0
    5.7208    4.6388   -0.5722 C   0  0  0  0  0  0  0  0  0  0  0  0
    5.1886    3.4072   -0.7408 N   0  0  0  0  0  0  0  0  0  0  0  0
    0.5093    0.0858    1.9398 H   0  0  0  0  0  0  0  0  0  0  0  0
    0.6845    0.3254    0.2118 H   0  0  0  0  0  0  0  0  0  0  0  0
   -0.6179    2.1519   -0.6595 H   0  0  0  0  0  0  0  0  0  0  0  0
   -2.2323    4.6369   -1.3279 H   0  0  0  0  0  0  0  0  0  0  0  0
   -1.7988    6.4209    2.4250 H   0  0  0  0  0  0  0  0  0  0  0  0
   -0.3199    4.5517    3.6942 H   0  0  0  0  0  0  0  0  0  0  0  0
    0.8207    2.3471    3.4257 H   0  0  0  0  0  0  0  0  0  0  0  0
    2.5971    1.4853   -0.6113 H   0  0  0  0  0  0  0  0  0  0  0  0
    4.8733    0.8560   -0.7873 H   0  0  0  0  0  0  0  0  0  0  0  0
    4.9621    0.5758    0.9503 H   0  0  0  0  0  0  0  0  0  0  0  0
    5.1169    2.4840    2.5078 H   0  0  0  0  0  0  0  0  0  0  0  0
    7.7918    2.4832    2.6129 H   0  0  0  0  0  0  0  0  0  0  0  0
    8.4736    0.9909    4.4630 H   0  0  0  0  0  0  0  0  0  0  0  0
    6.2967    5.3397    5.4894 H   0  0  0  0  0  0  0  0  0  0  0  0
    6.5810    6.1241    0.7232 H   0  0  0  0  0  0  0  0  0  0  0  0
    5.8297    5.2246   -1.4809 H   0  0  0  0  0  0  0  0  0  0  0  0
  1  2  2  0  0  0  0
  2  3  1  0  0  0  0
  2 13  1  0  0  0  0
  3  4  1  0  0  0  0
  3 30  1  0  0  0  0
  3 31  1  0  0  0  0
  4  5  2  0  0  0  0
  4 12  1  0  0  0  0
  5  6  1  0  0  0  0
  5 32  1  0  0  0  0
  6  7  2  0  0  0  0
  6 10  1  0  0  0  0
  7  8  1  0  0  0  0
  7 33  1  0  0  0  0
  8  9  2  0  0  0  0
  9 10  1  0  0  0  0
  9 34  1  0  0  0  0
 10 11  1  0  0  0  0
 11 12  2  0  0  0  0
 11 35  1  0  0  0  0
 12 36  1  0  0  0  0
 13 14  1  0  0  0  0
 13 37  1  0  0  0  0
 14 15  1  0  0  0  0
 14 38  1  0  0  0  0
 14 39  1  0  0  0  0
 15 16  2  0  0  0  0
 15 29  1  0  0  0  0
 16 17  1  0  0  0  0
 16 40  1  0  0  0  0
 17 18  1  0  0  0  0
 17 27  2  0  0  0  0
 18 19  1  0  0  0  0
 19 20  2  0  0  0  0
 19 26  1  0  0  0  0
 20 21  1  0  0  0  0
 20 41  1  0  0  0  0
 21 22  2  0  0  0  0
 21 42  1  0  0  0  0
 22 23  1  0  0  0  0
 22 24  1  0  0  0  0
 24 25  1  0  0  0  0
 24 26  2  0  0  0  0
 26 43  1  0  0  0  0
 27 28  1  0  0  0  0
 27 44  1  0  0  0  0
 28 29  2  0  0  0  0
 28 45  1  0  0  0  0
M  END
$$$$
