
 OpenBabel01122422363D

 47 50  0  0  0  0  0  0  0  0999 V2000
    5.8547    1.2232    0.1937 N   0  0  0  0  0  0  0  0  0  0  0  0
    5.6846    1.4621    1.6261 C   0  0  0  0  0  0  0  0  0  0  0  0
    4.2215    1.6569    1.9549 C   0  0  0  0  0  0  0  0  0  0  0  0
    3.7569    2.9938    1.9547 C   0  0  0  0  0  0  0  0  0  0  0  0
    2.4181    3.3039    2.1732 C   0  0  0  0  0  0  0  0  0  0  0  0
    1.5041    2.2811    2.3539 C   0  0  0  0  0  0  0  0  0  0  0  0
    1.9429    0.9570    2.3603 C   0  0  0  0  0  0  0  0  0  0  0  0
    3.3089    0.6023    2.2105 C   0  0  0  0  0  0  0  0  0  0  0  0
    3.6905   -0.8162    2.4654 C   0  0  0  0  0  0  0  0  0  0  0  0
    4.6943   -1.5117    1.7678 C   0  0  0  0  0  0  0  0  0  0  0  0
    5.1156   -2.7931    2.1529 C   0  0  0  0  0  0  0  0  0  0  0  0
    4.4849   -3.4472    3.2079 C   0  0  0  0  0  0  0  0  0  0  0  0
    3.4276   -2.8104    3.8647 C   0  0  0  0  0  0  0  0  0  0  0  0
    2.6821   -3.4270    4.9682 C   0  0  0  0  0  0  0  0  0  0  0  0
    1.4640   -3.4723    4.9365 O   0  0  0  0  0  0  0  0  0  0  0  0
    3.4873   -3.8966    5.9756 N   0  0  0  0  0  0  0  0  0  0  0  0
    3.1460   -4.7650    7.0240 C   0  0  0  0  0  0  0  0  0  0  0  0
    1.8653   -5.1773    7.3594 C   0  0  0  0  0  0  0  0  0  0  0  0
    1.6991   -6.2429    8.2595 C   0  0  0  0  0  0  0  0  0  0  0  0
    2.8074   -6.9669    8.7248 C   0  0  0  0  0  0  0  0  0  0  0  0
    4.0904   -6.5568    8.3636 C   0  0  0  0  0  0  0  0  0  0  0  0
    4.2351   -5.3705    7.6447 C   0  0  0  0  0  0  0  0  0  0  0  0
    5.5438   -4.8737    7.3735 N   0  0  0  0  0  0  0  0  0  0  0  0
    6.4379   -5.8396    6.9706 C   0  0  0  0  0  0  0  0  0  0  0  0
    7.2565   -5.6579    6.0787 O   0  0  0  0  0  0  0  0  0  0  0  0
    6.3826   -7.0935    7.7669 C   0  0  0  0  0  0  0  0  0  0  0  0
    5.2871   -7.4023    8.4865 C   0  0  0  0  0  0  0  0  0  0  0  0
    3.0526   -1.5172    3.5021 C   0  0  0  0  0  0  0  0  0  0  0  0
    6.8431    1.2102   -0.0411 H   0  0  0  0  0  0  0  0  0  0  0  0
    5.4320    1.9918   -0.3247 H   0  0  0  0  0  0  0  0  0  0  0  0
    6.2539    2.3581    1.9007 H   0  0  0  0  0  0  0  0  0  0  0  0
    6.1272    0.6544    2.2159 H   0  0  0  0  0  0  0  0  0  0  0  0
    4.4562    3.8108    1.7866 H   0  0  0  0  0  0  0  0  0  0  0  0
    2.0908    4.3392    2.1873 H   0  0  0  0  0  0  0  0  0  0  0  0
    0.4516    2.5032    2.5061 H   0  0  0  0  0  0  0  0  0  0  0  0
    1.1904    0.1826    2.5118 H   0  0  0  0  0  0  0  0  0  0  0  0
    5.1852   -1.0616    0.9092 H   0  0  0  0  0  0  0  0  0  0  0  0
    5.9371   -3.2697    1.6221 H   0  0  0  0  0  0  0  0  0  0  0  0
    4.8126   -4.4446    3.4939 H   0  0  0  0  0  0  0  0  0  0  0  0
    4.4928   -3.7877    5.8455 H   0  0  0  0  0  0  0  0  0  0  0  0
    0.9866   -4.7157    6.9163 H   0  0  0  0  0  0  0  0  0  0  0  0
    0.6922   -6.5625    8.5242 H   0  0  0  0  0  0  0  0  0  0  0  0
    2.6511   -7.8652    9.3084 H   0  0  0  0  0  0  0  0  0  0  0  0
    5.8953   -4.5692    8.2839 H   0  0  0  0  0  0  0  0  0  0  0  0
    7.2424   -7.7427    7.6766 H   0  0  0  0  0  0  0  0  0  0  0  0
    5.2173   -8.3411    9.0216 H   0  0  0  0  0  0  0  0  0  0  0  0
    2.2584   -1.0485    4.0806 H   0  0  0  0  0  0  0  0  0  0  0  0
  1  2  1  0  0  0  0
  1 29  1  0  0  0  0
  1 30  1  0  0  0  0
  2  3  1  0  0  0  0
  2 31  1  0  0  0  0
  2 32  1  0  0  0  0
  3  4  2  0  0  0  0
  3  8  1  0  0  0  0
  4  5  1  0  0  0  0
  4 33  1  0  0  0  0
  5  6  2  0  0  0  0
  5 34  1  0  0  0  0
  6  7  1  0  0  0  0
  6 35  1  0  0  0  0
  7  8  2  0  0  0  0
  7 36  1  0  0  0  0
  8  9  1  0  0  0  0
  9 10  2  0  0  0  0
  9 28  1  0  0  0  0
 10 11  1  0  0  0  0
 10 37  1  0  0  0  0
 11 12  2  0  0  0  0
 11 38  1  0  0  0  0
 12 13  1  0  0  0  0
 12 39  1  0  0  0  0
 13 14  1  0  0  0  0
 13 28  2  0  0  0  0
 14 15  2  0  0  0  0
 14 16  1  0  0  0  0
 16 17  1  0  0  0  0
 16 40  1  0  0  0  0
 17 18  2  0  0  0  0
 17 22  1  0  0  0  0
 18 19  1  0  0  0  0
 18 41  1  0  0  0  0
 19 20  2  0  0  0  0
 19 42  1  0  0  0  0
 20 21  1  0  0  0  0
 20 43  1  0  0  0  0
 21 22  2  0  0  0  0
 21 27  1  0  0  0  0
 22 23  1  0  0  0  0
 23 24  1  0  0  0  0
 23 44  1  0  0  0  0
 24 25  2  0  0  0  0
 24 26  1  0  0  0  0
 26 27  2  0  0  0  0
 26 45  1  0  0  0  0
 27 46  1  0  0  0  0
 28 47  1  0  0  0  0
M  END
$$$$
