
 OpenBabel01122422363D

 40 43  0  0  0  0  0  0  0  0999 V2000
    0.9051    0.2104   -0.2121 O   0  0  0  0  0  0  0  0  0  0  0  0
    2.0986    0.0263    0.0184 C   0  0  0  0  0  0  0  0  0  0  0  0
    2.7690   -1.1482   -0.3046 N   0  0  0  0  0  0  0  0  0  0  0  0
    2.1383   -2.2589   -0.8992 C   0  0  0  0  0  0  0  0  0  0  0  0
    2.4149   -3.5310   -0.3809 C   0  0  0  0  0  0  0  0  0  0  0  0
    3.2300   -3.5902    0.6879 F   0  0  0  0  0  0  0  0  0  0  0  0
    1.8032   -4.6965   -0.8801 C   0  0  0  0  0  0  0  0  0  0  0  0
    1.9986   -6.0283   -0.2522 C   0  0  0  0  0  0  0  0  0  0  0  0
    0.9949   -7.0117   -0.2858 C   0  0  0  0  0  0  0  0  0  0  0  0
    1.2045   -8.2379    0.3352 C   0  0  0  0  0  0  0  0  0  0  0  0
    2.3299   -8.5587    1.0000 N   0  0  0  0  0  0  0  0  0  0  0  0
    3.2875   -7.6136    1.0395 C   0  0  0  0  0  0  0  0  0  0  0  0
    3.1733   -6.3695    0.4319 C   0  0  0  0  0  0  0  0  0  0  0  0
    0.9525   -4.5278   -1.9915 C   0  0  0  0  0  0  0  0  0  0  0  0
    0.6859   -3.2632   -2.5312 C   0  0  0  0  0  0  0  0  0  0  0  0
    1.2627   -2.1258   -1.9732 C   0  0  0  0  0  0  0  0  0  0  0  0
    2.9282    0.9858    0.7157 C   0  0  0  0  0  0  0  0  0  0  0  0
    4.2438    0.9769    0.8236 N   0  0  0  0  0  0  0  0  0  0  0  0
    4.4871    2.1440    1.5266 C   0  0  0  0  0  0  0  0  0  0  0  0
    5.8356    2.6298    1.8020 C   0  0  0  0  0  0  0  0  0  0  0  0
    6.9481    1.9865    1.2419 C   0  0  0  0  0  0  0  0  0  0  0  0
    8.2384    2.4754    1.4709 C   0  0  0  0  0  0  0  0  0  0  0  0
    8.4304    3.6061    2.2633 C   0  0  0  0  0  0  0  0  0  0  0  0
    7.3328    4.2502    2.8305 C   0  0  0  0  0  0  0  0  0  0  0  0
    6.0431    3.7655    2.5999 C   0  0  0  0  0  0  0  0  0  0  0  0
    3.3756    2.7984    1.8950 N   0  0  0  0  0  0  0  0  0  0  0  0
    2.3429    2.0380    1.3474 O   0  0  0  0  0  0  0  0  0  0  0  0
    3.6126   -1.3293    0.2342 H   0  0  0  0  0  0  0  0  0  0  0  0
    0.0378   -6.8415   -0.7687 H   0  0  0  0  0  0  0  0  0  0  0  0
    0.4426   -9.0122    0.3151 H   0  0  0  0  0  0  0  0  0  0  0  0
    4.1833   -7.8823    1.5926 H   0  0  0  0  0  0  0  0  0  0  0  0
    4.0090   -5.6834    0.5128 H   0  0  0  0  0  0  0  0  0  0  0  0
    0.4743   -5.3853   -2.4615 H   0  0  0  0  0  0  0  0  0  0  0  0
    0.0189   -3.1676   -3.3858 H   0  0  0  0  0  0  0  0  0  0  0  0
    1.0446   -1.1515   -2.4034 H   0  0  0  0  0  0  0  0  0  0  0  0
    6.8226    1.1094    0.6134 H   0  0  0  0  0  0  0  0  0  0  0  0
    9.0950    1.9755    1.0250 H   0  0  0  0  0  0  0  0  0  0  0  0
    9.4338    3.9876    2.4367 H   0  0  0  0  0  0  0  0  0  0  0  0
    7.4795    5.1328    3.4473 H   0  0  0  0  0  0  0  0  0  0  0  0
    5.1996    4.2902    3.0465 H   0  0  0  0  0  0  0  0  0  0  0  0
  1  2  2  0  0  0  0
  2  3  1  0  0  0  0
  2 17  1  0  0  0  0
  3  4  1  0  0  0  0
  3 28  1  0  0  0  0
  4  5  2  0  0  0  0
  4 16  1  0  0  0  0
  5  6  1  0  0  0  0
  5  7  1  0  0  0  0
  7  8  1  0  0  0  0
  7 14  2  0  0  0  0
  8  9  2  0  0  0  0
  8 13  1  0  0  0  0
  9 10  1  0  0  0  0
  9 29  1  0  0  0  0
 10 11  2  0  0  0  0
 10 30  1  0  0  0  0
 11 12  1  0  0  0  0
 12 13  2  0  0  0  0
 12 31  1  0  0  0  0
 13 32  1  0  0  0  0
 14 15  1  0  0  0  0
 14 33  1  0  0  0  0
 15 16  2  0  0  0  0
 15 34  1  0  0  0  0
 16 35  1  0  0  0  0
 17 18  2  0  0  0  0
 17 27  1  0  0  0  0
 18 19  1  0  0  0  0
 19 20  1  0  0  0  0
 19 26  2  0  0  0  0
 20 21  2  0  0  0  0
 20 25  1  0  0  0  0
 21 22  1  0  0  0  0
 21 36  1  0  0  0  0
 22 23  2  0  0  0  0
 22 37  1  0  0  0  0
 23 24  1  0  0  0  0
 23 38  1  0  0  0  0
 24 25  2  0  0  0  0
 24 39  1  0  0  0  0
 25 40  1  0  0  0  0
 26 27  1  0  0  0  0
M  END
$$$$
