
 OpenBabel01122422363D

 51 54  0  0  0  0  0  0  0  0999 V2000
    1.1312    0.4298   -0.3995 O   0  0  0  0  0  0  0  0  0  0  0  0
    2.3485    0.3223   -0.3081 C   0  0  0  0  0  0  0  0  0  0  0  0
    3.0785   -0.3550   -1.2588 N   0  0  0  0  0  0  0  0  0  0  0  0
    2.3446   -1.0558   -2.3032 C   0  0  0  0  0  0  0  0  0  0  0  0
    3.3077   -1.6775   -3.2479 C   0  0  0  0  0  0  0  0  0  0  0  0
    3.7355   -2.9345   -3.0641 N   0  0  0  0  0  0  0  0  0  0  0  0
    4.6221   -3.1846   -4.0981 O   0  0  0  0  0  0  0  0  0  0  0  0
    4.7208   -2.0809   -4.8865 C   0  0  0  0  0  0  0  0  0  0  0  0
    5.6492   -2.1579   -6.0359 C   0  0  0  0  0  0  0  0  0  0  0  0
    6.9069   -1.6944   -5.5511 O   0  0  0  0  0  0  0  0  0  0  0  0
    7.9347   -1.6112   -6.4484 C   0  0  0  0  0  0  0  0  0  0  0  0
    9.1469   -1.1911   -5.8907 C   0  0  0  0  0  0  0  0  0  0  0  0
   10.2869   -1.0468   -6.6851 C   0  0  0  0  0  0  0  0  0  0  0  0
   10.2246   -1.3209   -8.0499 C   0  0  0  0  0  0  0  0  0  0  0  0
    9.0224   -1.7422   -8.6156 C   0  0  0  0  0  0  0  0  0  0  0  0
    7.8883   -1.8869   -7.8167 C   0  0  0  0  0  0  0  0  0  0  0  0
    6.7576   -2.2948   -8.4110 F   0  0  0  0  0  0  0  0  0  0  0  0
    3.9009   -1.0972   -4.3917 C   0  0  0  0  0  0  0  0  0  0  0  0
    3.1560    0.8578    0.6772 N   0  0  0  0  0  0  0  0  0  0  0  0
    2.7085    1.4624    1.8807 C   0  0  0  0  0  0  0  0  0  0  0  0
    1.3991    1.2559    2.3419 C   0  0  0  0  0  0  0  0  0  0  0  0
    0.9474    1.8088    3.5404 C   0  0  0  0  0  0  0  0  0  0  0  0
    1.8087    2.5625    4.3214 C   0  0  0  0  0  0  0  0  0  0  0  0
    3.1128    2.7852    3.8863 C   0  0  0  0  0  0  0  0  0  0  0  0
    3.5773    2.2673    2.6553 C   0  0  0  0  0  0  0  0  0  0  0  0
    4.9484    2.7073    2.2000 C   0  0  0  0  0  0  0  0  0  0  0  0
    6.0310    1.8612    2.6833 N   0  0  0  0  0  0  0  0  0  0  0  0
    6.7540    2.0439    3.8326 C   0  0  0  0  0  0  0  0  0  0  0  0
    7.8294    1.1916    3.7532 C   0  0  0  0  0  0  0  0  0  0  0  0
    7.6675    0.5358    2.5196 C   0  0  0  0  0  0  0  0  0  0  0  0
    6.5739    0.9344    1.8610 N   0  0  0  0  0  0  0  0  0  0  0  0
    3.8966   -0.8330   -0.9065 H   0  0  0  0  0  0  0  0  0  0  0  0
    1.7017   -0.3371   -2.8232 H   0  0  0  0  0  0  0  0  0  0  0  0
    1.7001   -1.8083   -1.8366 H   0  0  0  0  0  0  0  0  0  0  0  0
    5.2765   -1.5035   -6.8325 H   0  0  0  0  0  0  0  0  0  0  0  0
    5.7275   -3.1909   -6.3934 H   0  0  0  0  0  0  0  0  0  0  0  0
    9.2030   -0.9756   -4.8256 H   0  0  0  0  0  0  0  0  0  0  0  0
   11.2217   -0.7200   -6.2358 H   0  0  0  0  0  0  0  0  0  0  0  0
   11.1098   -1.2073   -8.6703 H   0  0  0  0  0  0  0  0  0  0  0  0
    8.9586   -1.9595   -9.6774 H   0  0  0  0  0  0  0  0  0  0  0  0
    3.7609   -0.1017   -4.7850 H   0  0  0  0  0  0  0  0  0  0  0  0
    4.1455    0.8879    0.4687 H   0  0  0  0  0  0  0  0  0  0  0  0
    0.6938    0.6429    1.7887 H   0  0  0  0  0  0  0  0  0  0  0  0
   -0.0782    1.6381    3.8570 H   0  0  0  0  0  0  0  0  0  0  0  0
    1.4614    2.9873    5.2592 H   0  0  0  0  0  0  0  0  0  0  0  0
    3.7638    3.3983    4.5065 H   0  0  0  0  0  0  0  0  0  0  0  0
    5.1550    3.7238    2.5602 H   0  0  0  0  0  0  0  0  0  0  0  0
    5.0200    2.7630    1.1080 H   0  0  0  0  0  0  0  0  0  0  0  0
    6.4649    2.7680    4.5836 H   0  0  0  0  0  0  0  0  0  0  0  0
    8.6274    1.0748    4.4731 H   0  0  0  0  0  0  0  0  0  0  0  0
    8.3118   -0.2084    2.0691 H   0  0  0  0  0  0  0  0  0  0  0  0
  1  2  2  0  0  0  0
  2  3  1  0  0  0  0
  2 19  1  0  0  0  0
  3  4  1  0  0  0  0
  3 32  1  0  0  0  0
  4  5  1  0  0  0  0
  4 33  1  0  0  0  0
  4 34  1  0  0  0  0
  5  6  2  0  0  0  0
  5 18  1  0  0  0  0
  6  7  1  0  0  0  0
  7  8  1  0  0  0  0
  8  9  1  0  0  0  0
  8 18  2  0  0  0  0
  9 10  1  0  0  0  0
  9 35  1  0  0  0  0
  9 36  1  0  0  0  0
 10 11  1  0  0  0  0
 11 12  2  0  0  0  0
 11 16  1  0  0  0  0
 12 13  1  0  0  0  0
 12 37  1  0  0  0  0
 13 14  2  0  0  0  0
 13 38  1  0  0  0  0
 14 15  1  0  0  0  0
 14 39  1  0  0  0  0
 15 16  2  0  0  0  0
 15 40  1  0  0  0  0
 16 17  1  0  0  0  0
 18 41  1  0  0  0  0
 19 20  1  0  0  0  0
 19 42  1  0  0  0  0
 20 21  2  0  0  0  0
 20 25  1  0  0  0  0
 21 22  1  0  0  0  0
 21 43  1  0  0  0  0
 22 23  2  0  0  0  0
 22 44  1  0  0  0  0
 23 24  1  0  0  0  0
 23 45  1  0  0  0  0
 24 25  2  0  0  0  0
 24 46  1  0  0  0  0
 25 26  1  0  0  0  0
 26 27  1  0  0  0  0
 26 47  1  0  0  0  0
 26 48  1  0  0  0  0
 27 28  1  0  0  0  0
 27 31  1  0  0  0  0
 28 29  2  0  0  0  0
 28 49  1  0  0  0  0
 29 30  1  0  0  0  0
 29 50  1  0  0  0  0
 30 31  2  0  0  0  0
 30 51  1  0  0  0  0
M  END
$$$$
