
 OpenBabel01122422363D

 37 40  0  0  0  0  0  0  0  0999 V2000
   -3.2479   -0.3477   -0.5579 N   0  0  0  0  0  0  0  0  0  0  0  0
   -2.1113   -0.2936   -0.3217 C   0  0  0  0  0  0  0  0  0  0  0  0
   -0.7103   -0.2377   -0.0283 C   0  0  0  0  0  0  0  0  0  0  0  0
    0.0579   -1.4065   -0.0747 C   0  0  0  0  0  0  0  0  0  0  0  0
    1.4346   -1.3809    0.2149 C   0  0  0  0  0  0  0  0  0  0  0  0
    2.2537   -2.5997    0.1603 C   0  0  0  0  0  0  0  0  0  0  0  0
    3.3124   -2.8609    0.9056 N   0  0  0  0  0  0  0  0  0  0  0  0
    3.8436   -4.1154    0.6416 N   0  0  0  0  0  0  0  0  0  0  0  0
    3.2212   -4.7143   -0.3485 C   0  0  0  0  0  0  0  0  0  0  0  0
    3.5646   -5.9656   -0.8144 N   0  0  0  0  0  0  0  0  0  0  0  0
    3.1684   -6.4727   -2.0339 C   0  0  0  0  0  0  0  0  0  0  0  0
    2.4697   -5.9107   -2.8704 O   0  0  0  0  0  0  0  0  0  0  0  0
    3.7104   -7.7957   -2.4111 C   0  0  0  0  0  0  0  0  0  0  0  0
    3.9407   -8.0617   -3.7613 C   0  0  0  0  0  0  0  0  0  0  0  0
    4.4547   -9.2989   -4.1596 C   0  0  0  0  0  0  0  0  0  0  0  0
    4.7475   -9.5467   -5.5125 C   0  0  0  0  0  0  0  0  0  0  0  0
    5.2975  -10.7642   -5.8970 C   0  0  0  0  0  0  0  0  0  0  0  0
    5.5094  -11.7397   -4.9346 C   0  0  0  0  0  0  0  0  0  0  0  0
    6.0380  -12.9140   -5.3056 F   0  0  0  0  0  0  0  0  0  0  0  0
    5.1938  -11.5068   -3.5978 C   0  0  0  0  0  0  0  0  0  0  0  0
    5.4002  -12.4924   -2.7076 F   0  0  0  0  0  0  0  0  0  0  0  0
    4.6877  -10.2800   -3.1687 C   0  0  0  0  0  0  0  0  0  0  0  0
    4.4411  -10.0263   -1.8591 N   0  0  0  0  0  0  0  0  0  0  0  0
    3.9694   -8.8050   -1.5047 C   0  0  0  0  0  0  0  0  0  0  0  0
    1.9002   -3.8437   -0.9693 S   0  0  0  0  0  0  0  0  0  0  0  0
    2.0178   -0.1561    0.5665 C   0  0  0  0  0  0  0  0  0  0  0  0
    1.2550    1.0159    0.6048 C   0  0  0  0  0  0  0  0  0  0  0  0
   -0.1063    0.9766    0.3063 C   0  0  0  0  0  0  0  0  0  0  0  0
   -0.4347   -2.3434   -0.3313 H   0  0  0  0  0  0  0  0  0  0  0  0
    4.3041   -6.4021   -0.2814 H   0  0  0  0  0  0  0  0  0  0  0  0
    3.7278   -7.2917   -4.5024 H   0  0  0  0  0  0  0  0  0  0  0  0
    4.5664   -8.7838   -6.2684 H   0  0  0  0  0  0  0  0  0  0  0  0
    5.5627  -10.9553   -6.9323 H   0  0  0  0  0  0  0  0  0  0  0  0
    3.7920   -8.6900   -0.4393 H   0  0  0  0  0  0  0  0  0  0  0  0
    3.0809   -0.1022    0.8043 H   0  0  0  0  0  0  0  0  0  0  0  0
    1.7242    1.9621    0.8673 H   0  0  0  0  0  0  0  0  0  0  0  0
   -0.6931    1.8913    0.3417 H   0  0  0  0  0  0  0  0  0  0  0  0
  1  2  3  0  0  0  0
  2  3  1  0  0  0  0
  3  4  2  0  0  0  0
  3 28  1  0  0  0  0
  4  5  1  0  0  0  0
  4 29  1  0  0  0  0
  5  6  1  0  0  0  0
  5 26  2  0  0  0  0
  6  7  2  0  0  0  0
  6 25  1  0  0  0  0
  7  8  1  0  0  0  0
  8  9  2  0  0  0  0
  9 10  1  0  0  0  0
  9 25  1  0  0  0  0
 10 11  1  0  0  0  0
 10 30  1  0  0  0  0
 11 12  2  0  0  0  0
 11 13  1  0  0  0  0
 13 14  2  0  0  0  0
 13 24  1  0  0  0  0
 14 15  1  0  0  0  0
 14 31  1  0  0  0  0
 15 16  2  0  0  0  0
 15 22  1  0  0  0  0
 16 17  1  0  0  0  0
 16 32  1  0  0  0  0
 17 18  2  0  0  0  0
 17 33  1  0  0  0  0
 18 19  1  0  0  0  0
 18 20  1  0  0  0  0
 20 21  1  0  0  0  0
 20 22  2  0  0  0  0
 22 23  1  0  0  0  0
 23 24  2  0  0  0  0
 24 34  1  0  0  0  0
 26 27  1  0  0  0  0
 26 35  1  0  0  0  0
 27 28  2  0  0  0  0
 27 36  1  0  0  0  0
 28 37  1  0  0  0  0
M  END
$$$$
