
 OpenBabel01122422353D

 47 50  0  0  0  0  0  0  0  0999 V2000
    1.1198    0.2304    0.3358 O   0  0  0  0  0  0  0  0  0  0  0  0
    2.3089    0.1012    0.0711 C   0  0  0  0  0  0  0  0  0  0  0  0
    2.9213    0.3613   -1.1367 N   0  0  0  0  0  0  0  0  0  0  0  0
    2.2932    0.8897   -2.2776 C   0  0  0  0  0  0  0  0  0  0  0  0
    1.0464    1.5168   -2.2527 C   0  0  0  0  0  0  0  0  0  0  0  0
    0.4750    1.9945   -3.4330 C   0  0  0  0  0  0  0  0  0  0  0  0
    1.1510    1.8605   -4.6425 C   0  0  0  0  0  0  0  0  0  0  0  0
    0.5148    2.3866   -5.7315 O   0  0  0  0  0  0  0  0  0  0  0  0
    1.3738    2.7072   -6.8283 C   0  0  0  0  0  0  0  0  0  0  0  0
    0.7330    3.7231   -7.7305 C   0  0  0  0  0  0  0  0  0  0  0  0
   -0.6375    3.7307   -7.9670 C   0  0  0  0  0  0  0  0  0  0  0  0
   -1.2337    4.6230   -8.7928 N   0  0  0  0  0  0  0  0  0  0  0  0
   -0.4020    5.5122   -9.3762 C   0  0  0  0  0  0  0  0  0  0  0  0
    0.9633    5.5077   -9.1593 C   0  0  0  0  0  0  0  0  0  0  0  0
    1.5605    4.6127   -8.3439 N   0  0  0  0  0  0  0  0  0  0  0  0
    2.3909    1.2219   -4.6736 C   0  0  0  0  0  0  0  0  0  0  0  0
    2.9705    0.7614   -3.4919 C   0  0  0  0  0  0  0  0  0  0  0  0
    3.1944   -0.4797    1.1097 C   0  0  0  0  0  0  0  0  0  0  0  0
    4.5359   -0.1036    1.2433 C   0  0  0  0  0  0  0  0  0  0  0  0
    5.3086   -0.6571    2.2650 C   0  0  0  0  0  0  0  0  0  0  0  0
    4.7405   -1.5766    3.1501 C   0  0  0  0  0  0  0  0  0  0  0  0
    3.3985   -1.9570    3.0143 C   0  0  0  0  0  0  0  0  0  0  0  0
    2.7961   -2.8849    4.0061 C   0  0  0  0  0  0  0  0  0  0  0  0
    3.1957   -2.8298    5.2425 N   0  0  0  0  0  0  0  0  0  0  0  0
    2.5817   -3.6679    6.1262 N   0  0  0  0  0  0  0  0  0  0  0  0
    1.5760   -4.5534    5.8300 C   0  0  0  0  0  0  0  0  0  0  0  0
    1.0352   -5.2623    6.6683 O   0  0  0  0  0  0  0  0  0  0  0  0
    1.1779   -4.6191    4.4132 C   0  0  0  0  0  0  0  0  0  0  0  0
    1.7614   -3.8260    3.5106 C   0  0  0  0  0  0  0  0  0  0  0  0
    2.6249   -1.3998    1.9959 C   0  0  0  0  0  0  0  0  0  0  0  0
    3.8584    0.0051   -1.2705 H   0  0  0  0  0  0  0  0  0  0  0  0
    0.5000    1.6661   -1.3262 H   0  0  0  0  0  0  0  0  0  0  0  0
   -0.4947    2.4851   -3.3977 H   0  0  0  0  0  0  0  0  0  0  0  0
    1.5803    1.8004   -7.4082 H   0  0  0  0  0  0  0  0  0  0  0  0
    2.3156    3.1403   -6.4664 H   0  0  0  0  0  0  0  0  0  0  0  0
   -1.3029    3.0166   -7.4912 H   0  0  0  0  0  0  0  0  0  0  0  0
   -0.8670    6.2402  -10.0325 H   0  0  0  0  0  0  0  0  0  0  0  0
    1.6199    6.2257   -9.6357 H   0  0  0  0  0  0  0  0  0  0  0  0
    2.9298    1.0617   -5.6015 H   0  0  0  0  0  0  0  0  0  0  0  0
    3.9422    0.2784   -3.5438 H   0  0  0  0  0  0  0  0  0  0  0  0
    4.9784    0.6475    0.5942 H   0  0  0  0  0  0  0  0  0  0  0  0
    6.3459   -0.3556    2.3894 H   0  0  0  0  0  0  0  0  0  0  0  0
    5.3450   -1.9840    3.9594 H   0  0  0  0  0  0  0  0  0  0  0  0
    2.8666   -3.5910    7.0965 H   0  0  0  0  0  0  0  0  0  0  0  0
    0.4105   -5.3359    4.1551 H   0  0  0  0  0  0  0  0  0  0  0  0
    1.5032   -3.8762    2.4636 H   0  0  0  0  0  0  0  0  0  0  0  0
    1.5684   -1.6372    1.8988 H   0  0  0  0  0  0  0  0  0  0  0  0
  1  2  2  0  0  0  0
  2  3  1  0  0  0  0
  2 18  1  0  0  0  0
  3  4  1  0  0  0  0
  3 31  1  0  0  0  0
  4  5  2  0  0  0  0
  4 17  1  0  0  0  0
  5  6  1  0  0  0  0
  5 32  1  0  0  0  0
  6  7  2  0  0  0  0
  6 33  1  0  0  0  0
  7  8  1  0  0  0  0
  7 16  1  0  0  0  0
  8  9  1  0  0  0  0
  9 10  1  0  0  0  0
  9 34  1  0  0  0  0
  9 35  1  0  0  0  0
 10 11  2  0  0  0  0
 10 15  1  0  0  0  0
 11 12  1  0  0  0  0
 11 36  1  0  0  0  0
 12 13  2  0  0  0  0
 13 14  1  0  0  0  0
 13 37  1  0  0  0  0
 14 15  2  0  0  0  0
 14 38  1  0  0  0  0
 16 17  2  0  0  0  0
 16 39  1  0  0  0  0
 17 40  1  0  0  0  0
 18 19  2  0  0  0  0
 18 30  1  0  0  0  0
 19 20  1  0  0  0  0
 19 41  1  0  0  0  0
 20 21  2  0  0  0  0
 20 42  1  0  0  0  0
 21 22  1  0  0  0  0
 21 43  1  0  0  0  0
 22 23  1  0  0  0  0
 22 30  2  0  0  0  0
 23 24  2  0  0  0  0
 23 29  1  0  0  0  0
 24 25  1  0  0  0  0
 25 26  1  0  0  0  0
 25 44  1  0  0  0  0
 26 27  2  0  0  0  0
 26 28  1  0  0  0  0
 28 29  2  0  0  0  0
 28 45  1  0  0  0  0
 29 46  1  0  0  0  0
 30 47  1  0  0  0  0
M  END
$$$$
