
 OpenBabel01122422363D

 47 50  0  0  0  0  0  0  0  0999 V2000
   -2.1100    0.2017   -0.0535 C   0  0  0  0  0  0  0  0  0  0  0  0
   -0.6784    0.0334   -0.0163 N   0  0  0  0  0  0  0  0  0  0  0  0
    0.0838    1.1416   -0.0810 N   0  0  0  0  0  0  0  0  0  0  0  0
    1.3394    0.6880    0.0210 C   0  0  0  0  0  0  0  0  0  0  0  0
    2.5070    1.6102   -0.0760 C   0  0  0  0  0  0  0  0  0  0  0  0
    2.8735    2.0180    1.3295 C   0  0  0  0  0  0  0  0  0  0  0  0
    3.8231    1.2973    2.0706 C   0  0  0  0  0  0  0  0  0  0  0  0
    4.1925    1.7188    3.3505 C   0  0  0  0  0  0  0  0  0  0  0  0
    3.6194    2.8629    3.9027 C   0  0  0  0  0  0  0  0  0  0  0  0
    2.6696    3.5825    3.1811 C   0  0  0  0  0  0  0  0  0  0  0  0
    2.2942    3.1596    1.9052 C   0  0  0  0  0  0  0  0  0  0  0  0
    1.3651   -0.7221    0.1160 C   0  0  0  0  0  0  0  0  0  0  0  0
    0.0530   -1.1297    0.0954 C   0  0  0  0  0  0  0  0  0  0  0  0
   -0.4232   -2.4407    0.1371 N   0  0  0  0  0  0  0  0  0  0  0  0
    0.4048   -3.5635    0.5078 C   0  0  0  0  0  0  0  0  0  0  0  0
    1.5675   -3.4083    0.8665 O   0  0  0  0  0  0  0  0  0  0  0  0
   -0.1879   -4.9159    0.4912 C   0  0  0  0  0  0  0  0  0  0  0  0
    0.5787   -6.0174    0.8905 C   0  0  0  0  0  0  0  0  0  0  0  0
    0.0091   -7.2982    0.9252 C   0  0  0  0  0  0  0  0  0  0  0  0
   -1.3314   -7.5134    0.5526 C   0  0  0  0  0  0  0  0  0  0  0  0
   -1.9397   -8.8547    0.5917 C   0  0  0  0  0  0  0  0  0  0  0  0
   -3.2795   -9.0797    0.8767 C   0  0  0  0  0  0  0  0  0  0  0  0
   -3.8737  -10.2918    0.9035 N   0  0  0  0  0  0  0  0  0  0  0  0
   -3.0765  -11.3346    0.6401 C   0  0  0  0  0  0  0  0  0  0  0  0
   -1.7696  -11.2653    0.3563 N   0  0  0  0  0  0  0  0  0  0  0  0
   -1.2375  -10.0238    0.3374 C   0  0  0  0  0  0  0  0  0  0  0  0
   -2.0722   -6.3928    0.1349 C   0  0  0  0  0  0  0  0  0  0  0  0
   -1.5051   -5.1205    0.1073 C   0  0  0  0  0  0  0  0  0  0  0  0
   -2.2645   -4.0903   -0.2954 F   0  0  0  0  0  0  0  0  0  0  0  0
   -2.3460    1.2721   -0.0848 H   0  0  0  0  0  0  0  0  0  0  0  0
   -2.5438   -0.2361    0.8484 H   0  0  0  0  0  0  0  0  0  0  0  0
   -2.4968   -0.2804   -0.9535 H   0  0  0  0  0  0  0  0  0  0  0  0
    2.2614    2.4882   -0.6827 H   0  0  0  0  0  0  0  0  0  0  0  0
    3.3534    1.1124   -0.5639 H   0  0  0  0  0  0  0  0  0  0  0  0
    4.2945    0.4109    1.6526 H   0  0  0  0  0  0  0  0  0  0  0  0
    4.9362    1.1610    3.9141 H   0  0  0  0  0  0  0  0  0  0  0  0
    3.9156    3.1968    4.8939 H   0  0  0  0  0  0  0  0  0  0  0  0
    2.2259    4.4784    3.6078 H   0  0  0  0  0  0  0  0  0  0  0  0
    1.5510    3.7317    1.3526 H   0  0  0  0  0  0  0  0  0  0  0  0
    2.2538   -1.3352    0.1605 H   0  0  0  0  0  0  0  0  0  0  0  0
   -1.3976   -2.6045   -0.0926 H   0  0  0  0  0  0  0  0  0  0  0  0
    1.6210   -5.8963    1.1905 H   0  0  0  0  0  0  0  0  0  0  0  0
    0.6328   -8.1242    1.2697 H   0  0  0  0  0  0  0  0  0  0  0  0
   -3.9583   -8.2631    1.1110 H   0  0  0  0  0  0  0  0  0  0  0  0
   -3.5277  -12.3199    0.6577 H   0  0  0  0  0  0  0  0  0  0  0  0
   -0.1806  -10.0101    0.0837 H   0  0  0  0  0  0  0  0  0  0  0  0
   -3.1069   -6.4902   -0.1859 H   0  0  0  0  0  0  0  0  0  0  0  0
  1  2  1  0  0  0  0
  1 30  1  0  0  0  0
  1 31  1  0  0  0  0
  1 32  1  0  0  0  0
  2  3  1  0  0  0  0
  2 13  1  0  0  0  0
  3  4  2  0  0  0  0
  4  5  1  0  0  0  0
  4 12  1  0  0  0  0
  5  6  1  0  0  0  0
  5 33  1  0  0  0  0
  5 34  1  0  0  0  0
  6  7  2  0  0  0  0
  6 11  1  0  0  0  0
  7  8  1  0  0  0  0
  7 35  1  0  0  0  0
  8  9  2  0  0  0  0
  8 36  1  0  0  0  0
  9 10  1  0  0  0  0
  9 37  1  0  0  0  0
 10 11  2  0  0  0  0
 10 38  1  0  0  0  0
 11 39  1  0  0  0  0
 12 13  2  0  0  0  0
 12 40  1  0  0  0  0
 13 14  1  0  0  0  0
 14 15  1  0  0  0  0
 14 41  1  0  0  0  0
 15 16  2  0  0  0  0
 15 17  1  0  0  0  0
 17 18  2  0  0  0  0
 17 28  1  0  0  0  0
 18 19  1  0  0  0  0
 18 42  1  0  0  0  0
 19 20  2  0  0  0  0
 19 43  1  0  0  0  0
 20 21  1  0  0  0  0
 20 27  1  0  0  0  0
 21 22  2  0  0  0  0
 21 26  1  0  0  0  0
 22 23  1  0  0  0  0
 22 44  1  0  0  0  0
 23 24  2  0  0  0  0
 24 25  1  0  0  0  0
 24 45  1  0  0  0  0
 25 26  2  0  0  0  0
 26 46  1  0  0  0  0
 27 28  2  0  0  0  0
 27 47  1  0  0  0  0
 28 29  1  0  0  0  0
M  END
$$$$
