
 OpenBabel01122422363D

 42 45  0  0  0  0  0  0  0  0999 V2000
   -1.1659    2.9493    2.2035 N   0  0  0  0  0  0  0  0  0  0  0  0
   -1.2389    2.1448    1.3640 C   0  0  0  0  0  0  0  0  0  0  0  0
   -1.3253    1.1631    0.3250 C   0  0  0  0  0  0  0  0  0  0  0  0
   -1.0995    1.5328   -1.0002 C   0  0  0  0  0  0  0  0  0  0  0  0
   -1.2033    0.5525   -1.9694 C   0  0  0  0  0  0  0  0  0  0  0  0
   -1.5285   -0.7324   -1.7051 N   0  0  0  0  0  0  0  0  0  0  0  0
   -1.7941   -1.0584   -0.4216 C   0  0  0  0  0  0  0  0  0  0  0  0
   -2.3260   -2.3466   -0.1642 N   0  0  0  0  0  0  0  0  0  0  0  0
   -1.3341   -3.3864    0.0896 C   0  0  0  0  0  0  0  0  0  0  0  0
   -1.0085   -4.3484   -1.0291 C   0  0  0  0  0  0  0  0  0  0  0  0
   -1.2800   -4.0877   -2.3796 C   0  0  0  0  0  0  0  0  0  0  0  0
   -0.6927   -4.8705   -3.3794 C   0  0  0  0  0  0  0  0  0  0  0  0
    0.1540   -5.9185   -3.0331 C   0  0  0  0  0  0  0  0  0  0  0  0
    0.7893   -6.6005   -3.9950 F   0  0  0  0  0  0  0  0  0  0  0  0
    0.3730   -6.2479   -1.7059 C   0  0  0  0  0  0  0  0  0  0  0  0
   -0.2177   -5.4677   -0.7183 C   0  0  0  0  0  0  0  0  0  0  0  0
    0.0370   -5.7675    0.5643 F   0  0  0  0  0  0  0  0  0  0  0  0
   -3.7185   -2.4274   -0.0888 C   0  0  0  0  0  0  0  0  0  0  0  0
   -4.4016   -1.3970   -0.1546 O   0  0  0  0  0  0  0  0  0  0  0  0
   -4.4339   -3.7079   -0.0309 C   0  0  0  0  0  0  0  0  0  0  0  0
   -5.6996   -3.8274   -0.6042 C   0  0  0  0  0  0  0  0  0  0  0  0
   -6.1590   -5.1012   -0.4374 N   0  0  0  0  0  0  0  0  0  0  0  0
   -5.2325   -5.8364    0.2520 C   0  0  0  0  0  0  0  0  0  0  0  0
   -5.2341   -7.1783    0.6357 C   0  0  0  0  0  0  0  0  0  0  0  0
   -4.1271   -7.6103    1.3554 C   0  0  0  0  0  0  0  0  0  0  0  0
   -3.1389   -6.6968    1.6763 C   0  0  0  0  0  0  0  0  0  0  0  0
   -3.1371   -5.3968    1.3272 N   0  0  0  0  0  0  0  0  0  0  0  0
   -4.1760   -4.9783    0.5655 C   0  0  0  0  0  0  0  0  0  0  0  0
   -1.6678   -0.1514    0.6259 C   0  0  0  0  0  0  0  0  0  0  0  0
   -0.8610    2.5552   -1.2774 H   0  0  0  0  0  0  0  0  0  0  0  0
   -1.0433    0.7836   -3.0189 H   0  0  0  0  0  0  0  0  0  0  0  0
   -1.6028   -3.8942    1.0104 H   0  0  0  0  0  0  0  0  0  0  0  0
   -0.3837   -2.8916    0.3384 H   0  0  0  0  0  0  0  0  0  0  0  0
   -1.9019   -3.2442   -2.6715 H   0  0  0  0  0  0  0  0  0  0  0  0
   -0.8576   -4.6400   -4.4276 H   0  0  0  0  0  0  0  0  0  0  0  0
    1.0269   -7.0697   -1.4414 H   0  0  0  0  0  0  0  0  0  0  0  0
   -6.2986   -3.0886   -1.1230 H   0  0  0  0  0  0  0  0  0  0  0  0
   -7.0509   -5.4487   -0.7640 H   0  0  0  0  0  0  0  0  0  0  0  0
   -6.0439   -7.8516    0.3792 H   0  0  0  0  0  0  0  0  0  0  0  0
   -4.0379   -8.6446    1.6690 H   0  0  0  0  0  0  0  0  0  0  0  0
   -2.2684   -7.0098    2.2480 H   0  0  0  0  0  0  0  0  0  0  0  0
   -1.8747   -0.4595    1.6470 H   0  0  0  0  0  0  0  0  0  0  0  0
  1  2  3  0  0  0  0
  2  3  1  0  0  0  0
  3  4  2  0  0  0  0
  3 29  1  0  0  0  0
  4  5  1  0  0  0  0
  4 30  1  0  0  0  0
  5  6  2  0  0  0  0
  5 31  1  0  0  0  0
  6  7  1  0  0  0  0
  7  8  1  0  0  0  0
  7 29  2  0  0  0  0
  8  9  1  0  0  0  0
  8 18  1  0  0  0  0
  9 10  1  0  0  0  0
  9 32  1  0  0  0  0
  9 33  1  0  0  0  0
 10 11  2  0  0  0  0
 10 16  1  0  0  0  0
 11 12  1  0  0  0  0
 11 34  1  0  0  0  0
 12 13  2  0  0  0  0
 12 35  1  0  0  0  0
 13 14  1  0  0  0  0
 13 15  1  0  0  0  0
 15 16  2  0  0  0  0
 15 36  1  0  0  0  0
 16 17  1  0  0  0  0
 18 19  2  0  0  0  0
 18 20  1  0  0  0  0
 20 21  2  0  0  0  0
 20 28  1  0  0  0  0
 21 22  1  0  0  0  0
 21 37  1  0  0  0  0
 22 23  1  0  0  0  0
 22 38  1  0  0  0  0
 23 24  2  0  0  0  0
 23 28  1  0  0  0  0
 24 25  1  0  0  0  0
 24 39  1  0  0  0  0
 25 26  2  0  0  0  0
 25 40  1  0  0  0  0
 26 27  1  0  0  0  0
 26 41  1  0  0  0  0
 27 28  2  0  0  0  0
 29 42  1  0  0  0  0
M  END
$$$$
