
 OpenBabel01122422363D

 43 46  0  0  0  0  0  0  0  0999 V2000
    3.2384    0.7868   -0.7982 N   0  0  0  0  0  0  0  0  0  0  0  0
    2.7797   -0.4381   -0.3982 C   0  0  0  0  0  0  0  0  0  0  0  0
    1.7985   -0.9403   -0.9302 O   0  0  0  0  0  0  0  0  0  0  0  0
    3.5346   -1.0737    0.6526 C   0  0  0  0  0  0  0  0  0  0  0  0
    4.5862   -0.5962    1.4055 C   0  0  0  0  0  0  0  0  0  0  0  0
    5.0007   -1.6177    2.2925 C   0  0  0  0  0  0  0  0  0  0  0  0
    6.0256   -1.6577    3.2483 C   0  0  0  0  0  0  0  0  0  0  0  0
    6.2089   -2.8156    3.9883 C   0  0  0  0  0  0  0  0  0  0  0  0
    5.3870   -3.9200    3.7827 C   0  0  0  0  0  0  0  0  0  0  0  0
    4.3470   -3.9312    2.8337 C   0  0  0  0  0  0  0  0  0  0  0  0
    3.5102   -5.0649    2.6433 N   0  0  0  0  0  0  0  0  0  0  0  0
    3.6428   -6.2936    3.2871 C   0  0  0  0  0  0  0  0  0  0  0  0
    4.5447   -6.6320    4.0478 O   0  0  0  0  0  0  0  0  0  0  0  0
    2.5964   -7.3190    3.0209 C   0  0  0  0  0  0  0  0  0  0  0  0
    2.9579   -8.6810    3.1208 C   0  0  0  0  0  0  0  0  0  0  0  0
    2.0182   -9.7152    2.9494 C   0  0  0  0  0  0  0  0  0  0  0  0
    2.3869  -11.1459    3.0345 C   0  0  0  0  0  0  0  0  0  0  0  0
    3.4002  -11.6315    3.8629 C   0  0  0  0  0  0  0  0  0  0  0  0
    3.6923  -12.9958    3.8613 C   0  0  0  0  0  0  0  0  0  0  0  0
    2.9670  -13.8470    3.0393 C   0  0  0  0  0  0  0  0  0  0  0  0
    1.9689  -13.2961    2.2571 C   0  0  0  0  0  0  0  0  0  0  0  0
    1.6646  -11.9787    2.2409 N   0  0  0  0  0  0  0  0  0  0  0  0
    0.6950   -9.3322    2.6736 C   0  0  0  0  0  0  0  0  0  0  0  0
    0.3382   -7.9874    2.5936 C   0  0  0  0  0  0  0  0  0  0  0  0
   -0.9390   -7.6607    2.3577 F   0  0  0  0  0  0  0  0  0  0  0  0
    1.2717   -6.9743    2.7685 C   0  0  0  0  0  0  0  0  0  0  0  0
    4.1773   -2.7346    2.0927 C   0  0  0  0  0  0  0  0  0  0  0  0
    3.2847   -2.3597    1.1015 N   0  0  0  0  0  0  0  0  0  0  0  0
    2.7679    1.2470   -1.5644 H   0  0  0  0  0  0  0  0  0  0  0  0
    4.1022    1.1846   -0.4624 H   0  0  0  0  0  0  0  0  0  0  0  0
    5.0305    0.3865    1.3382 H   0  0  0  0  0  0  0  0  0  0  0  0
    6.6677   -0.7980    3.4085 H   0  0  0  0  0  0  0  0  0  0  0  0
    6.9994   -2.8658    4.7332 H   0  0  0  0  0  0  0  0  0  0  0  0
    5.5926   -4.7822    4.4080 H   0  0  0  0  0  0  0  0  0  0  0  0
    2.7897   -4.9758    1.9418 H   0  0  0  0  0  0  0  0  0  0  0  0
    3.9998   -8.9248    3.3305 H   0  0  0  0  0  0  0  0  0  0  0  0
    3.9583  -10.9710    4.5185 H   0  0  0  0  0  0  0  0  0  0  0  0
    4.4799  -13.3890    4.4981 H   0  0  0  0  0  0  0  0  0  0  0  0
    3.1711  -14.9115    3.0103 H   0  0  0  0  0  0  0  0  0  0  0  0
    1.3672  -13.9168    1.5990 H   0  0  0  0  0  0  0  0  0  0  0  0
   -0.0766  -10.0854    2.5323 H   0  0  0  0  0  0  0  0  0  0  0  0
    0.9345   -5.9447    2.7450 H   0  0  0  0  0  0  0  0  0  0  0  0
    2.5454   -2.9357    0.7240 H   0  0  0  0  0  0  0  0  0  0  0  0
  1  2  1  0  0  0  0
  1 29  1  0  0  0  0
  1 30  1  0  0  0  0
  2  3  2  0  0  0  0
  2  4  1  0  0  0  0
  4  5  2  0  0  0  0
  4 28  1  0  0  0  0
  5  6  1  0  0  0  0
  5 31  1  0  0  0  0
  6  7  2  0  0  0  0
  6 27  1  0  0  0  0
  7  8  1  0  0  0  0
  7 32  1  0  0  0  0
  8  9  2  0  0  0  0
  8 33  1  0  0  0  0
  9 10  1  0  0  0  0
  9 34  1  0  0  0  0
 10 11  1  0  0  0  0
 10 27  2  0  0  0  0
 11 12  1  0  0  0  0
 11 35  1  0  0  0  0
 12 13  2  0  0  0  0
 12 14  1  0  0  0  0
 14 15  2  0  0  0  0
 14 26  1  0  0  0  0
 15 16  1  0  0  0  0
 15 36  1  0  0  0  0
 16 17  1  0  0  0  0
 16 23  2  0  0  0  0
 17 18  2  0  0  0  0
 17 22  1  0  0  0  0
 18 19  1  0  0  0  0
 18 37  1  0  0  0  0
 19 20  2  0  0  0  0
 19 38  1  0  0  0  0
 20 21  1  0  0  0  0
 20 39  1  0  0  0  0
 21 22  2  0  0  0  0
 21 40  1  0  0  0  0
 23 24  1  0  0  0  0
 23 41  1  0  0  0  0
 24 25  1  0  0  0  0
 24 26  2  0  0  0  0
 26 42  1  0  0  0  0
 27 28  1  0  0  0  0
 28 43  1  0  0  0  0
M  END
$$$$
