
 OpenBabel01122422363D

 41 44  0  0  0  0  0  0  0  0999 V2000
    2.7302   -1.0751   -0.1645 O   0  0  0  0  0  0  0  0  0  0  0  0
    2.2335    0.0350   -0.0203 C   0  0  0  0  0  0  0  0  0  0  0  0
    0.9553    0.2901    0.4426 N   0  0  0  0  0  0  0  0  0  0  0  0
    0.0052   -0.6699    0.8437 C   0  0  0  0  0  0  0  0  0  0  0  0
    0.3340   -2.0005    1.1193 C   0  0  0  0  0  0  0  0  0  0  0  0
   -0.6610   -2.9267    1.4241 C   0  0  0  0  0  0  0  0  0  0  0  0
   -1.9914   -2.5147    1.4523 C   0  0  0  0  0  0  0  0  0  0  0  0
   -3.0776   -3.4771    1.6865 C   0  0  0  0  0  0  0  0  0  0  0  0
   -2.8672   -4.6653    1.9027 O   0  0  0  0  0  0  0  0  0  0  0  0
   -4.3444   -2.9584    1.6349 N   0  0  0  0  0  0  0  0  0  0  0  0
   -4.5946   -1.6332    1.4202 C   0  0  0  0  0  0  0  0  0  0  0  0
   -3.6808   -0.7434    1.2322 N   0  0  0  0  0  0  0  0  0  0  0  0
   -2.3437   -1.1809    1.2244 C   0  0  0  0  0  0  0  0  0  0  0  0
   -1.3316   -0.2579    0.9420 C   0  0  0  0  0  0  0  0  0  0  0  0
    2.9739    1.2123   -0.3900 C   0  0  0  0  0  0  0  0  0  0  0  0
    2.7334    2.5645   -0.2747 C   0  0  0  0  0  0  0  0  0  0  0  0
    3.8474    3.2092   -0.8761 C   0  0  0  0  0  0  0  0  0  0  0  0
    4.0552    4.6429   -1.0505 C   0  0  0  0  0  0  0  0  0  0  0  0
    3.6168    5.4984   -0.0174 C   0  0  0  0  0  0  0  0  0  0  0  0
    3.8171    6.8761   -0.0829 C   0  0  0  0  0  0  0  0  0  0  0  0
    4.4840    7.4214   -1.1699 C   0  0  0  0  0  0  0  0  0  0  0  0
    4.9056    6.5923   -2.2084 C   0  0  0  0  0  0  0  0  0  0  0  0
    4.6673    5.1986   -2.1893 C   0  0  0  0  0  0  0  0  0  0  0  0
    5.0674    4.4323   -3.4338 C   0  0  0  0  0  0  0  0  0  0  0  0
    4.5481    3.1898   -3.6103 F   0  0  0  0  0  0  0  0  0  0  0  0
    4.6614    5.1097   -4.5574 F   0  0  0  0  0  0  0  0  0  0  0  0
    6.4194    4.3197   -3.5698 F   0  0  0  0  0  0  0  0  0  0  0  0
    4.7690    2.3116   -1.2427 N   0  0  0  0  0  0  0  0  0  0  0  0
    4.1885    1.1247   -1.0124 N   0  0  0  0  0  0  0  0  0  0  0  0
    0.6159    1.2368    0.3487 H   0  0  0  0  0  0  0  0  0  0  0  0
    1.3622   -2.3498    1.1042 H   0  0  0  0  0  0  0  0  0  0  0  0
   -0.3968   -3.9640    1.6136 H   0  0  0  0  0  0  0  0  0  0  0  0
   -5.1001   -3.6132    1.7748 H   0  0  0  0  0  0  0  0  0  0  0  0
   -5.6649   -1.3737    1.4214 H   0  0  0  0  0  0  0  0  0  0  0  0
   -1.6167    0.7738    0.7524 H   0  0  0  0  0  0  0  0  0  0  0  0
    1.8699    3.0440    0.1632 H   0  0  0  0  0  0  0  0  0  0  0  0
    3.1246    5.0950    0.8657 H   0  0  0  0  0  0  0  0  0  0  0  0
    3.4659    7.5168    0.7218 H   0  0  0  0  0  0  0  0  0  0  0  0
    4.6686    8.4915   -1.2178 H   0  0  0  0  0  0  0  0  0  0  0  0
    5.4159    7.0388   -3.0624 H   0  0  0  0  0  0  0  0  0  0  0  0
    4.6650    0.2752   -1.3022 H   0  0  0  0  0  0  0  0  0  0  0  0
  1  2  2  0  0  0  0
  2  3  1  0  0  0  0
  2 15  1  0  0  0  0
  3  4  1  0  0  0  0
  3 30  1  0  0  0  0
  4  5  2  0  0  0  0
  4 14  1  0  0  0  0
  5  6  1  0  0  0  0
  5 31  1  0  0  0  0
  6  7  2  0  0  0  0
  6 32  1  0  0  0  0
  7  8  1  0  0  0  0
  7 13  1  0  0  0  0
  8  9  2  0  0  0  0
  8 10  1  0  0  0  0
 10 11  1  0  0  0  0
 10 33  1  0  0  0  0
 11 12  2  0  0  0  0
 11 34  1  0  0  0  0
 12 13  1  0  0  0  0
 13 14  2  0  0  0  0
 14 35  1  0  0  0  0
 15 16  2  0  0  0  0
 15 29  1  0  0  0  0
 16 17  1  0  0  0  0
 16 36  1  0  0  0  0
 17 18  1  0  0  0  0
 17 28  2  0  0  0  0
 18 19  2  0  0  0  0
 18 23  1  0  0  0  0
 19 20  1  0  0  0  0
 19 37  1  0  0  0  0
 20 21  2  0  0  0  0
 20 38  1  0  0  0  0
 21 22  1  0  0  0  0
 21 39  1  0  0  0  0
 22 23  2  0  0  0  0
 22 40  1  0  0  0  0
 23 24  1  0  0  0  0
 24 25  1  0  0  0  0
 24 26  1  0  0  0  0
 24 27  1  0  0  0  0
 28 29  1  0  0  0  0
 29 41  1  0  0  0  0
M  END
$$$$
