
 OpenBabel01122422363D

 48 51  0  0  0  0  0  0  0  0999 V2000
    0.9857   -0.1282   -0.2442 C   0  0  0  0  0  0  0  0  0  0  0  0
    2.4420   -0.0503   -0.1396 N   0  0  0  0  0  0  0  0  0  0  0  0
    3.1101   -1.2379   -0.3055 N   0  0  0  0  0  0  0  0  0  0  0  0
    4.4151   -1.2505   -0.3429 C   0  0  0  0  0  0  0  0  0  0  0  0
    5.0926   -2.5934   -0.5715 C   0  0  0  0  0  0  0  0  0  0  0  0
    6.1418   -2.6519   -1.1978 O   0  0  0  0  0  0  0  0  0  0  0  0
    4.4275   -3.6913   -0.0636 N   0  0  0  0  0  0  0  0  0  0  0  0
    5.0134   -5.0095   -0.1308 C   0  0  0  0  0  0  0  0  0  0  0  0
    3.9636   -6.0814   -0.2554 C   0  0  0  0  0  0  0  0  0  0  0  0
    3.4971   -6.4580   -1.5285 C   0  0  0  0  0  0  0  0  0  0  0  0
    2.4789   -7.4155   -1.7026 C   0  0  0  0  0  0  0  0  0  0  0  0
    1.9268   -7.7288   -3.0453 C   0  0  0  0  0  0  0  0  0  0  0  0
    1.8521   -6.7412   -4.0478 C   0  0  0  0  0  0  0  0  0  0  0  0
    1.2696   -7.0146   -5.2851 C   0  0  0  0  0  0  0  0  0  0  0  0
    1.1793   -6.0562   -6.2516 O   0  0  0  0  0  0  0  0  0  0  0  0
    0.7469   -8.2673   -5.5653 C   0  0  0  0  0  0  0  0  0  0  0  0
    0.8192   -9.2663   -4.6005 C   0  0  0  0  0  0  0  0  0  0  0  0
    1.4101   -9.0012   -3.3592 C   0  0  0  0  0  0  0  0  0  0  0  0
    1.9703   -8.0212   -0.5403 C   0  0  0  0  0  0  0  0  0  0  0  0
    2.4356   -7.6710    0.7312 C   0  0  0  0  0  0  0  0  0  0  0  0
    3.4166   -6.6943    0.8745 C   0  0  0  0  0  0  0  0  0  0  0  0
    5.2133    0.0156   -0.1881 C   0  0  0  0  0  0  0  0  0  0  0  0
    6.4147   -0.0159    0.0254 O   0  0  0  0  0  0  0  0  0  0  0  0
    4.4760    1.2743   -0.2713 C   0  0  0  0  0  0  0  0  0  0  0  0
    5.1678    2.4906   -0.3602 C   0  0  0  0  0  0  0  0  0  0  0  0
    4.4547    3.6831   -0.3991 C   0  0  0  0  0  0  0  0  0  0  0  0
    3.0660    3.6489   -0.3317 C   0  0  0  0  0  0  0  0  0  0  0  0
    2.3895    2.4226   -0.2413 C   0  0  0  0  0  0  0  0  0  0  0  0
    3.0806    1.1989   -0.2258 C   0  0  0  0  0  0  0  0  0  0  0  0
    0.6479   -1.1703   -0.2743 H   0  0  0  0  0  0  0  0  0  0  0  0
    0.6283    0.3556   -1.1602 H   0  0  0  0  0  0  0  0  0  0  0  0
    0.5114    0.3417    0.6242 H   0  0  0  0  0  0  0  0  0  0  0  0
    3.5504   -3.5426    0.4221 H   0  0  0  0  0  0  0  0  0  0  0  0
    5.6076   -5.1580    0.7785 H   0  0  0  0  0  0  0  0  0  0  0  0
    5.7110   -5.0722   -0.9739 H   0  0  0  0  0  0  0  0  0  0  0  0
    3.9492   -5.9831   -2.3983 H   0  0  0  0  0  0  0  0  0  0  0  0
    2.2276   -5.7414   -3.8514 H   0  0  0  0  0  0  0  0  0  0  0  0
    1.5671   -5.2338   -5.9100 H   0  0  0  0  0  0  0  0  0  0  0  0
    0.2832   -8.4620   -6.5276 H   0  0  0  0  0  0  0  0  0  0  0  0
    0.4105  -10.2516   -4.8089 H   0  0  0  0  0  0  0  0  0  0  0  0
    1.4570   -9.8120   -2.6354 H   0  0  0  0  0  0  0  0  0  0  0  0
    1.1759   -8.7616   -0.6047 H   0  0  0  0  0  0  0  0  0  0  0  0
    2.0156   -8.1555    1.6096 H   0  0  0  0  0  0  0  0  0  0  0  0
    3.7554   -6.4198    1.8712 H   0  0  0  0  0  0  0  0  0  0  0  0
    6.2547    2.5038   -0.3953 H   0  0  0  0  0  0  0  0  0  0  0  0
    4.9798    4.6327   -0.4711 H   0  0  0  0  0  0  0  0  0  0  0  0
    2.5010    4.5786   -0.3466 H   0  0  0  0  0  0  0  0  0  0  0  0
    1.3053    2.4566   -0.1787 H   0  0  0  0  0  0  0  0  0  0  0  0
  1  2  1  0  0  0  0
  1 30  1  0  0  0  0
  1 31  1  0  0  0  0
  1 32  1  0  0  0  0
  2  3  1  0  0  0  0
  2 29  1  0  0  0  0
  3  4  2  0  0  0  0
  4  5  1  0  0  0  0
  4 22  1  0  0  0  0
  5  6  2  0  0  0  0
  5  7  1  0  0  0  0
  7  8  1  0  0  0  0
  7 33  1  0  0  0  0
  8  9  1  0  0  0  0
  8 34  1  0  0  0  0
  8 35  1  0  0  0  0
  9 10  2  0  0  0  0
  9 21  1  0  0  0  0
 10 11  1  0  0  0  0
 10 36  1  0  0  0  0
 11 12  1  0  0  0  0
 11 19  2  0  0  0  0
 12 13  2  0  0  0  0
 12 18  1  0  0  0  0
 13 14  1  0  0  0  0
 13 37  1  0  0  0  0
 14 15  1  0  0  0  0
 14 16  2  0  0  0  0
 15 38  1  0  0  0  0
 16 17  1  0  0  0  0
 16 39  1  0  0  0  0
 17 18  2  0  0  0  0
 17 40  1  0  0  0  0
 18 41  1  0  0  0  0
 19 20  1  0  0  0  0
 19 42  1  0  0  0  0
 20 21  2  0  0  0  0
 20 43  1  0  0  0  0
 21 44  1  0  0  0  0
 22 23  2  0  0  0  0
 22 24  1  0  0  0  0
 24 25  2  0  0  0  0
 24 29  1  0  0  0  0
 25 26  1  0  0  0  0
 25 45  1  0  0  0  0
 26 27  2  0  0  0  0
 26 46  1  0  0  0  0
 27 28  1  0  0  0  0
 27 47  1  0  0  0  0
 28 29  2  0  0  0  0
 28 48  1  0  0  0  0
M  END
$$$$
