
 OpenBabel01122422363D

 46 49  0  0  0  0  0  0  0  0999 V2000
    2.2092   -0.0130   -1.0547 C   0  0  0  0  0  0  0  0  0  0  0  0
    0.7508   -0.1197   -0.7011 C   0  0  0  0  0  0  0  0  0  0  0  0
   -0.0145    1.0615   -0.7478 C   0  0  0  0  0  0  0  0  0  0  0  0
   -1.3488    1.0868   -0.3419 C   0  0  0  0  0  0  0  0  0  0  0  0
   -1.9157    2.3292   -0.3346 O   0  0  0  0  0  0  0  0  0  0  0  0
   -3.2739    2.4557    0.0933 C   0  0  0  0  0  0  0  0  0  0  0  0
   -4.2497    2.2775   -1.0412 C   0  0  0  0  0  0  0  0  0  0  0  0
   -3.8458    2.0368   -2.3653 C   0  0  0  0  0  0  0  0  0  0  0  0
   -4.7898    1.8183   -3.3757 C   0  0  0  0  0  0  0  0  0  0  0  0
   -4.3623    1.5485   -4.7169 C   0  0  0  0  0  0  0  0  0  0  0  0
   -4.0232    1.3307   -5.8011 N   0  0  0  0  0  0  0  0  0  0  0  0
   -6.1560    1.8613   -3.0674 C   0  0  0  0  0  0  0  0  0  0  0  0
   -6.5662    2.1382   -1.7628 C   0  0  0  0  0  0  0  0  0  0  0  0
   -5.6172    2.3449   -0.7679 C   0  0  0  0  0  0  0  0  0  0  0  0
   -6.0320    2.6066    0.4796 F   0  0  0  0  0  0  0  0  0  0  0  0
   -1.9657   -0.1028    0.0088 C   0  0  0  0  0  0  0  0  0  0  0  0
   -1.2271   -1.2869    0.0412 C   0  0  0  0  0  0  0  0  0  0  0  0
    0.1428   -1.3066   -0.2488 C   0  0  0  0  0  0  0  0  0  0  0  0
    0.9205   -2.4650   -0.0241 N   0  0  0  0  0  0  0  0  0  0  0  0
    0.4852   -3.6481    0.5447 C   0  0  0  0  0  0  0  0  0  0  0  0
   -0.6552   -3.9984    0.8150 O   0  0  0  0  0  0  0  0  0  0  0  0
    1.6146   -4.6146    0.8873 C   0  0  0  0  0  0  0  0  0  0  0  0
    2.8369   -4.2551    0.6078 N   0  0  0  0  0  0  0  0  0  0  0  0
    3.8069   -5.1627    0.9182 C   0  0  0  0  0  0  0  0  0  0  0  0
    5.1113   -5.0599    0.7577 N   0  0  0  0  0  0  0  0  0  0  0  0
    5.6403   -6.2534    1.1765 C   0  0  0  0  0  0  0  0  0  0  0  0
    4.6524   -7.1066    1.6122 C   0  0  0  0  0  0  0  0  0  0  0  0
    3.4896   -6.4024    1.4728 N   0  0  0  0  0  0  0  0  0  0  0  0
    2.1896   -6.7646    1.7901 C   0  0  0  0  0  0  0  0  0  0  0  0
    1.1970   -5.9048    1.5327 C   0  0  0  0  0  0  0  0  0  0  0  0
    2.4236    0.9327   -1.5678 H   0  0  0  0  0  0  0  0  0  0  0  0
    2.5154   -0.8155   -1.7318 H   0  0  0  0  0  0  0  0  0  0  0  0
    2.8146   -0.0408   -0.1439 H   0  0  0  0  0  0  0  0  0  0  0  0
    0.4419    1.9933   -1.0775 H   0  0  0  0  0  0  0  0  0  0  0  0
   -3.3792    3.4740    0.4855 H   0  0  0  0  0  0  0  0  0  0  0  0
   -3.5053    1.7856    0.9312 H   0  0  0  0  0  0  0  0  0  0  0  0
   -2.7849    2.0032   -2.6185 H   0  0  0  0  0  0  0  0  0  0  0  0
   -6.8987    1.6823   -3.8400 H   0  0  0  0  0  0  0  0  0  0  0  0
   -7.6244    2.1862   -1.5142 H   0  0  0  0  0  0  0  0  0  0  0  0
   -3.0116   -0.1658    0.2894 H   0  0  0  0  0  0  0  0  0  0  0  0
   -1.7651   -2.1793    0.3411 H   0  0  0  0  0  0  0  0  0  0  0  0
    1.9258   -2.4102   -0.1737 H   0  0  0  0  0  0  0  0  0  0  0  0
    6.7048   -6.4378    1.1360 H   0  0  0  0  0  0  0  0  0  0  0  0
    4.6801   -8.1160    1.9907 H   0  0  0  0  0  0  0  0  0  0  0  0
    2.0324   -7.7342    2.2431 H   0  0  0  0  0  0  0  0  0  0  0  0
    0.1546   -6.0951    1.7554 H   0  0  0  0  0  0  0  0  0  0  0  0
  1  2  1  0  0  0  0
  1 31  1  0  0  0  0
  1 32  1  0  0  0  0
  1 33  1  0  0  0  0
  2  3  2  0  0  0  0
  2 18  1  0  0  0  0
  3  4  1  0  0  0  0
  3 34  1  0  0  0  0
  4  5  1  0  0  0  0
  4 16  2  0  0  0  0
  5  6  1  0  0  0  0
  6  7  1  0  0  0  0
  6 35  1  0  0  0  0
  6 36  1  0  0  0  0
  7  8  2  0  0  0  0
  7 14  1  0  0  0  0
  8  9  1  0  0  0  0
  8 37  1  0  0  0  0
  9 10  1  0  0  0  0
  9 12  2  0  0  0  0
 10 11  3  0  0  0  0
 12 13  1  0  0  0  0
 12 38  1  0  0  0  0
 13 14  2  0  0  0  0
 13 39  1  0  0  0  0
 14 15  1  0  0  0  0
 16 17  1  0  0  0  0
 16 40  1  0  0  0  0
 17 18  2  0  0  0  0
 17 41  1  0  0  0  0
 18 19  1  0  0  0  0
 19 20  1  0  0  0  0
 19 42  1  0  0  0  0
 20 21  2  0  0  0  0
 20 22  1  0  0  0  0
 22 23  2  0  0  0  0
 22 30  1  0  0  0  0
 23 24  1  0  0  0  0
 24 25  2  0  0  0  0
 24 28  1  0  0  0  0
 25 26  1  0  0  0  0
 26 27  2  0  0  0  0
 26 43  1  0  0  0  0
 27 28  1  0  0  0  0
 27 44  1  0  0  0  0
 28 29  1  0  0  0  0
 29 30  2  0  0  0  0
 29 45  1  0  0  0  0
 30 46  1  0  0  0  0
M  END
$$$$
