
 OpenBabel01122422363D

 52 55  0  0  0  0  0  0  0  0999 V2000
    0.9892    0.5413   -0.1793 C   0  0  0  0  0  0  0  0  0  0  0  0
    2.4424    0.4677   -0.2688 N   0  0  0  0  0  0  0  0  0  0  0  0
    2.9889   -0.2505   -1.4299 C   0  0  0  0  0  0  0  0  0  0  0  0
    3.1130    0.6418   -2.6437 C   0  0  0  0  0  0  0  0  0  0  0  0
    2.7642    1.9378   -2.7643 C   0  0  0  0  0  0  0  0  0  0  0  0
    3.0251    2.6933   -3.9672 C   0  0  0  0  0  0  0  0  0  0  0  0
    3.6260    2.1050   -5.0064 C   0  0  0  0  0  0  0  0  0  0  0  0
    3.9830    0.7829   -4.9280 N   0  0  0  0  0  0  0  0  0  0  0  0
    3.7683   -0.0103   -3.8274 C   0  0  0  0  0  0  0  0  0  0  0  0
    4.0999   -1.1896   -3.8101 O   0  0  0  0  0  0  0  0  0  0  0  0
    3.1575    1.0165    0.8119 C   0  0  0  0  0  0  0  0  0  0  0  0
    2.5721    1.6196    1.7120 O   0  0  0  0  0  0  0  0  0  0  0  0
    4.6474    0.9052    0.9122 C   0  0  0  0  0  0  0  0  0  0  0  0
    5.3970    1.3233   -0.2060 C   0  0  0  0  0  0  0  0  0  0  0  0
    6.7879    1.3307   -0.1998 C   0  0  0  0  0  0  0  0  0  0  0  0
    7.4599    0.9837    0.9568 C   0  0  0  0  0  0  0  0  0  0  0  0
    6.7364    0.6066    2.0916 C   0  0  0  0  0  0  0  0  0  0  0  0
    5.3170    0.5507    2.1185 C   0  0  0  0  0  0  0  0  0  0  0  0
    4.6568    0.1387    3.3989 C   0  0  0  0  0  0  0  0  0  0  0  0
    5.1991    0.5023    4.6511 C   0  0  0  0  0  0  0  0  0  0  0  0
    4.6064    0.1233    5.8643 C   0  0  0  0  0  0  0  0  0  0  0  0
    3.4204   -0.6134    5.8741 C   0  0  0  0  0  0  0  0  0  0  0  0
    2.7505   -0.9835    7.1710 C   0  0  0  0  0  0  0  0  0  0  0  0
    1.8669    0.0636    7.6548 N   0  0  0  0  0  0  0  0  0  0  0  0
    2.1873    1.0540    8.5433 C   0  0  0  0  0  0  0  0  0  0  0  0
    0.9995    1.6979    8.8015 C   0  0  0  0  0  0  0  0  0  0  0  0
   -0.0268    1.1285    8.0932 N   0  0  0  0  0  0  0  0  0  0  0  0
    0.5264    0.1547    7.4050 C   0  0  0  0  0  0  0  0  0  0  0  0
    2.8668   -0.9885    4.6461 C   0  0  0  0  0  0  0  0  0  0  0  0
    3.4915   -0.6433    3.4370 C   0  0  0  0  0  0  0  0  0  0  0  0
    0.5174    0.1957   -1.1040 H   0  0  0  0  0  0  0  0  0  0  0  0
    0.6821    1.5737    0.0126 H   0  0  0  0  0  0  0  0  0  0  0  0
    0.6581   -0.0892    0.6520 H   0  0  0  0  0  0  0  0  0  0  0  0
    2.3208   -1.0921   -1.6544 H   0  0  0  0  0  0  0  0  0  0  0  0
    3.9585   -0.6807   -1.1673 H   0  0  0  0  0  0  0  0  0  0  0  0
    2.3162    2.4824   -1.9385 H   0  0  0  0  0  0  0  0  0  0  0  0
    2.7405    3.7392   -4.0008 H   0  0  0  0  0  0  0  0  0  0  0  0
    3.8585    2.6268   -5.9294 H   0  0  0  0  0  0  0  0  0  0  0  0
    4.4352    0.3312   -5.7136 H   0  0  0  0  0  0  0  0  0  0  0  0
    4.9046    1.6865   -1.0979 H   0  0  0  0  0  0  0  0  0  0  0  0
    7.3358    1.6305   -1.0892 H   0  0  0  0  0  0  0  0  0  0  0  0
    8.5459    1.0199    0.9886 H   0  0  0  0  0  0  0  0  0  0  0  0
    7.3149    0.3507    2.9780 H   0  0  0  0  0  0  0  0  0  0  0  0
    6.1002    1.1104    4.7082 H   0  0  0  0  0  0  0  0  0  0  0  0
    5.0775    0.4257    6.7976 H   0  0  0  0  0  0  0  0  0  0  0  0
    3.4946   -1.1821    7.9517 H   0  0  0  0  0  0  0  0  0  0  0  0
    2.1568   -1.8986    7.0598 H   0  0  0  0  0  0  0  0  0  0  0  0
    3.1910    1.2105    8.9116 H   0  0  0  0  0  0  0  0  0  0  0  0
    0.8265    2.5353    9.4651 H   0  0  0  0  0  0  0  0  0  0  0  0
    0.0057   -0.5121    6.7305 H   0  0  0  0  0  0  0  0  0  0  0  0
    1.9357   -1.5497    4.6081 H   0  0  0  0  0  0  0  0  0  0  0  0
    3.0240   -0.9834    2.5167 H   0  0  0  0  0  0  0  0  0  0  0  0
  1  2  1  0  0  0  0
  1 31  1  0  0  0  0
  1 32  1  0  0  0  0
  1 33  1  0  0  0  0
  2  3  1  0  0  0  0
  2 11  1  0  0  0  0
  3  4  1  0  0  0  0
  3 34  1  0  0  0  0
  3 35  1  0  0  0  0
  4  5  2  0  0  0  0
  4  9  1  0  0  0  0
  5  6  1  0  0  0  0
  5 36  1  0  0  0  0
  6  7  2  0  0  0  0
  6 37  1  0  0  0  0
  7  8  1  0  0  0  0
  7 38  1  0  0  0  0
  8  9  1  0  0  0  0
  8 39  1  0  0  0  0
  9 10  2  0  0  0  0
 11 12  2  0  0  0  0
 11 13  1  0  0  0  0
 13 14  2  0  0  0  0
 13 18  1  0  0  0  0
 14 15  1  0  0  0  0
 14 40  1  0  0  0  0
 15 16  2  0  0  0  0
 15 41  1  0  0  0  0
 16 17  1  0  0  0  0
 16 42  1  0  0  0  0
 17 18  2  0  0  0  0
 17 43  1  0  0  0  0
 18 19  1  0  0  0  0
 19 20  2  0  0  0  0
 19 30  1  0  0  0  0
 20 21  1  0  0  0  0
 20 44  1  0  0  0  0
 21 22  2  0  0  0  0
 21 45  1  0  0  0  0
 22 23  1  0  0  0  0
 22 29  1  0  0  0  0
 23 24  1  0  0  0  0
 23 46  1  0  0  0  0
 23 47  1  0  0  0  0
 24 25  1  0  0  0  0
 24 28  1  0  0  0  0
 25 26  2  0  0  0  0
 25 48  1  0  0  0  0
 26 27  1  0  0  0  0
 26 49  1  0  0  0  0
 27 28  2  0  0  0  0
 28 50  1  0  0  0  0
 29 30  2  0  0  0  0
 29 51  1  0  0  0  0
 30 52  1  0  0  0  0
M  END
$$$$
