
 OpenBabel01122422363D

 43 46  0  0  0  0  0  0  0  0999 V2000
    8.7073    3.4815    3.6928 N   0  0  0  0  0  0  0  0  0  0  0  0
    8.9264    3.1776    2.4888 C   0  0  0  0  0  0  0  0  0  0  0  0
    9.1906    2.8113    1.0374 C   0  0  0  0  0  0  0  0  0  0  0  0
    7.9134    2.6803    0.3407 N   0  0  0  0  0  0  0  0  0  0  0  0
    7.3099    3.7951   -0.2311 C   0  0  0  0  0  0  0  0  0  0  0  0
    6.0393    3.7720   -0.6801 C   0  0  0  0  0  0  0  0  0  0  0  0
    5.4747    4.9176   -1.2181 N   0  0  0  0  0  0  0  0  0  0  0  0
    4.1771    5.0836   -1.6750 C   0  0  0  0  0  0  0  0  0  0  0  0
    3.2890    4.2383   -1.6380 O   0  0  0  0  0  0  0  0  0  0  0  0
    3.8545    6.3852   -2.3331 C   0  0  0  0  0  0  0  0  0  0  0  0
    2.9453    6.2954   -3.4001 C   0  0  0  0  0  0  0  0  0  0  0  0
    2.5738    7.4202   -4.1281 C   0  0  0  0  0  0  0  0  0  0  0  0
    3.1077    8.6533   -3.7564 C   0  0  0  0  0  0  0  0  0  0  0  0
    2.8786    9.8610   -4.3280 N   0  0  0  0  0  0  0  0  0  0  0  0
    3.5060   10.7563   -3.5925 C   0  0  0  0  0  0  0  0  0  0  0  0
    3.3754   12.1974   -3.8412 C   0  0  0  0  0  0  0  0  0  0  0  0
    2.7213   12.5861   -5.0322 C   0  0  0  0  0  0  0  0  0  0  0  0
    2.4413   13.9208   -5.3087 C   0  0  0  0  0  0  0  0  0  0  0  0
    2.8219   14.8866   -4.3945 C   0  0  0  0  0  0  0  0  0  0  0  0
    2.5307   16.1705   -4.6342 F   0  0  0  0  0  0  0  0  0  0  0  0
    3.4942   14.5385   -3.2252 C   0  0  0  0  0  0  0  0  0  0  0  0
    3.7762   13.1933   -2.9455 C   0  0  0  0  0  0  0  0  0  0  0  0
    4.2096   10.1196   -2.5804 N   0  0  0  0  0  0  0  0  0  0  0  0
    3.9700    8.7583   -2.6714 C   0  0  0  0  0  0  0  0  0  0  0  0
    4.3821    7.6337   -1.9270 C   0  0  0  0  0  0  0  0  0  0  0  0
    5.3111    2.5206   -0.5645 C   0  0  0  0  0  0  0  0  0  0  0  0
    5.8632    1.4259   -0.0255 C   0  0  0  0  0  0  0  0  0  0  0  0
    7.2483    1.4663    0.4884 C   0  0  0  0  0  0  0  0  0  0  0  0
    7.7334    0.4746    1.0232 O   0  0  0  0  0  0  0  0  0  0  0  0
    9.7466    1.8685    0.9938 H   0  0  0  0  0  0  0  0  0  0  0  0
    9.7985    3.5857    0.5568 H   0  0  0  0  0  0  0  0  0  0  0  0
    7.9110    4.6984   -0.2711 H   0  0  0  0  0  0  0  0  0  0  0  0
    6.0947    5.7085   -1.3310 H   0  0  0  0  0  0  0  0  0  0  0  0
    2.5134    5.3344   -3.6767 H   0  0  0  0  0  0  0  0  0  0  0  0
    1.8753    7.3569   -4.9545 H   0  0  0  0  0  0  0  0  0  0  0  0
    2.3967   11.8269   -5.7437 H   0  0  0  0  0  0  0  0  0  0  0  0
    1.9101   14.1990   -6.2148 H   0  0  0  0  0  0  0  0  0  0  0  0
    3.7723   15.3230   -2.5283 H   0  0  0  0  0  0  0  0  0  0  0  0
    4.2750   12.9531   -2.0129 H   0  0  0  0  0  0  0  0  0  0  0  0
    4.7738   10.5792   -1.8855 H   0  0  0  0  0  0  0  0  0  0  0  0
    5.0332    7.7340   -1.0664 H   0  0  0  0  0  0  0  0  0  0  0  0
    4.2903    2.4396   -0.9150 H   0  0  0  0  0  0  0  0  0  0  0  0
    5.3264    0.4918    0.0788 H   0  0  0  0  0  0  0  0  0  0  0  0
  1  2  3  0  0  0  0
  2  3  1  0  0  0  0
  3  4  1  0  0  0  0
  3 30  1  0  0  0  0
  3 31  1  0  0  0  0
  4  5  1  0  0  0  0
  4 28  1  0  0  0  0
  5  6  2  0  0  0  0
  5 32  1  0  0  0  0
  6  7  1  0  0  0  0
  6 26  1  0  0  0  0
  7  8  1  0  0  0  0
  7 33  1  0  0  0  0
  8  9  2  0  0  0  0
  8 10  1  0  0  0  0
 10 11  2  0  0  0  0
 10 25  1  0  0  0  0
 11 12  1  0  0  0  0
 11 34  1  0  0  0  0
 12 13  2  0  0  0  0
 12 35  1  0  0  0  0
 13 14  1  0  0  0  0
 13 24  1  0  0  0  0
 14 15  2  0  0  0  0
 15 16  1  0  0  0  0
 15 23  1  0  0  0  0
 16 17  2  0  0  0  0
 16 22  1  0  0  0  0
 17 18  1  0  0  0  0
 17 36  1  0  0  0  0
 18 19  2  0  0  0  0
 18 37  1  0  0  0  0
 19 20  1  0  0  0  0
 19 21  1  0  0  0  0
 21 22  2  0  0  0  0
 21 38  1  0  0  0  0
 22 39  1  0  0  0  0
 23 24  1  0  0  0  0
 23 40  1  0  0  0  0
 24 25  2  0  0  0  0
 25 41  1  0  0  0  0
 26 27  2  0  0  0  0
 26 42  1  0  0  0  0
 27 28  1  0  0  0  0
 27 43  1  0  0  0  0
 28 29  2  0  0  0  0
M  END
$$$$
