
 OpenBabel01122422363D

 49 52  0  0  0  0  0  0  0  0999 V2000
    0.9886    0.0975    0.0517 O   0  0  0  0  0  0  0  0  0  0  0  0
    2.2051   -0.0442    0.0547 C   0  0  0  0  0  0  0  0  0  0  0  0
    2.8714   -0.9760    0.8213 N   0  0  0  0  0  0  0  0  0  0  0  0
    2.1663   -1.8957    1.6845 C   0  0  0  0  0  0  0  0  0  0  0  0
    2.0196   -1.3759    3.0936 C   0  0  0  0  0  0  0  0  0  0  0  0
    0.9154   -0.5858    3.4451 C   0  0  0  0  0  0  0  0  0  0  0  0
    0.7428   -0.1420    4.7607 C   0  0  0  0  0  0  0  0  0  0  0  0
    1.6771   -0.4753    5.7474 C   0  0  0  0  0  0  0  0  0  0  0  0
    1.4918   -0.0212    7.1365 C   0  0  0  0  0  0  0  0  0  0  0  0
    0.7974   -0.8031    7.9848 C   0  0  0  0  0  0  0  0  0  0  0  0
    0.5948   -0.4234    9.2905 N   0  0  0  0  0  0  0  0  0  0  0  0
    1.0643    0.7482    9.8324 C   0  0  0  0  0  0  0  0  0  0  0  0
    0.8712    1.0685   10.9999 O   0  0  0  0  0  0  0  0  0  0  0  0
    1.8330    1.6201    8.9095 C   0  0  0  0  0  0  0  0  0  0  0  0
    2.0241    1.2363    7.6374 C   0  0  0  0  0  0  0  0  0  0  0  0
    2.7959   -1.2393    5.3961 C   0  0  0  0  0  0  0  0  0  0  0  0
    2.9682   -1.6824    4.0794 C   0  0  0  0  0  0  0  0  0  0  0  0
    3.0523    0.8465   -0.7774 C   0  0  0  0  0  0  0  0  0  0  0  0
    2.6107    2.1514   -1.0174 C   0  0  0  0  0  0  0  0  0  0  0  0
    3.4153    3.0151   -1.7577 C   0  0  0  0  0  0  0  0  0  0  0  0
    3.0786    4.4386   -1.9764 C   0  0  0  0  0  0  0  0  0  0  0  0
    2.3506    5.1826   -1.0281 C   0  0  0  0  0  0  0  0  0  0  0  0
    2.0722    6.5395   -1.2212 C   0  0  0  0  0  0  0  0  0  0  0  0
    2.5171    7.1860   -2.3695 C   0  0  0  0  0  0  0  0  0  0  0  0
    3.2350    6.4758   -3.3266 C   0  0  0  0  0  0  0  0  0  0  0  0
    3.5118    5.1184   -3.1306 C   0  0  0  0  0  0  0  0  0  0  0  0
    4.5956    2.6002   -2.2880 N   0  0  0  0  0  0  0  0  0  0  0  0
    4.9605    1.3312   -2.0573 C   0  0  0  0  0  0  0  0  0  0  0  0
    6.1534    0.9922   -2.6056 O   0  0  0  0  0  0  0  0  0  0  0  0
    4.2534    0.4126   -1.3224 C   0  0  0  0  0  0  0  0  0  0  0  0
    3.8759   -0.9300    0.9107 H   0  0  0  0  0  0  0  0  0  0  0  0
    2.7375   -2.8314    1.6904 H   0  0  0  0  0  0  0  0  0  0  0  0
    1.1817   -2.1278    1.2625 H   0  0  0  0  0  0  0  0  0  0  0  0
    0.1746   -0.3206    2.6912 H   0  0  0  0  0  0  0  0  0  0  0  0
   -0.1301    0.4583    5.0084 H   0  0  0  0  0  0  0  0  0  0  0  0
    0.3654   -1.7562    7.6926 H   0  0  0  0  0  0  0  0  0  0  0  0
    0.0688   -1.0183    9.9183 H   0  0  0  0  0  0  0  0  0  0  0  0
    2.2139    2.5487    9.3122 H   0  0  0  0  0  0  0  0  0  0  0  0
    2.5822    1.8649    6.9506 H   0  0  0  0  0  0  0  0  0  0  0  0
    3.5357   -1.5028    6.1491 H   0  0  0  0  0  0  0  0  0  0  0  0
    3.8410   -2.2839    3.8357 H   0  0  0  0  0  0  0  0  0  0  0  0
    1.6549    2.4773   -0.6177 H   0  0  0  0  0  0  0  0  0  0  0  0
    2.0081    4.7211   -0.1045 H   0  0  0  0  0  0  0  0  0  0  0  0
    1.5170    7.0907   -0.4664 H   0  0  0  0  0  0  0  0  0  0  0  0
    2.3095    8.2428   -2.5150 H   0  0  0  0  0  0  0  0  0  0  0  0
    3.5877    6.9767   -4.2245 H   0  0  0  0  0  0  0  0  0  0  0  0
    4.0800    4.5865   -3.8921 H   0  0  0  0  0  0  0  0  0  0  0  0
    6.3986    1.8409   -3.0182 H   0  0  0  0  0  0  0  0  0  0  0  0
    4.6247   -0.5967   -1.2069 H   0  0  0  0  0  0  0  0  0  0  0  0
  1  2  2  0  0  0  0
  2  3  1  0  0  0  0
  2 18  1  0  0  0  0
  3  4  1  0  0  0  0
  3 31  1  0  0  0  0
  4  5  1  0  0  0  0
  4 32  1  0  0  0  0
  4 33  1  0  0  0  0
  5  6  2  0  0  0  0
  5 17  1  0  0  0  0
  6  7  1  0  0  0  0
  6 34  1  0  0  0  0
  7  8  2  0  0  0  0
  7 35  1  0  0  0  0
  8  9  1  0  0  0  0
  8 16  1  0  0  0  0
  9 10  2  0  0  0  0
  9 15  1  0  0  0  0
 10 11  1  0  0  0  0
 10 36  1  0  0  0  0
 11 12  1  0  0  0  0
 11 37  1  0  0  0  0
 12 13  2  0  0  0  0
 12 14  1  0  0  0  0
 14 15  2  0  0  0  0
 14 38  1  0  0  0  0
 15 39  1  0  0  0  0
 16 17  2  0  0  0  0
 16 40  1  0  0  0  0
 17 41  1  0  0  0  0
 18 19  2  0  0  0  0
 18 30  1  0  0  0  0
 19 20  1  0  0  0  0
 19 42  1  0  0  0  0
 20 21  1  0  0  0  0
 20 27  2  0  0  0  0
 21 22  2  0  0  0  0
 21 26  1  0  0  0  0
 22 23  1  0  0  0  0
 22 43  1  0  0  0  0
 23 24  2  0  0  0  0
 23 44  1  0  0  0  0
 24 25  1  0  0  0  0
 24 45  1  0  0  0  0
 25 26  2  0  0  0  0
 25 46  1  0  0  0  0
 26 47  1  0  0  0  0
 27 28  1  0  0  0  0
 28 29  1  0  0  0  0
 28 30  2  0  0  0  0
 29 48  1  0  0  0  0
 30 49  1  0  0  0  0
M  END
$$$$
