
 OpenBabel01122422363D

 47 50  0  0  0  0  0  0  0  0999 V2000
    2.1867   -0.7833   -1.9241 O   0  0  0  0  0  0  0  0  0  0  0  0
    2.8821   -0.3700   -1.0022 C   0  0  0  0  0  0  0  0  0  0  0  0
    2.9692    0.9587   -0.6606 N   0  0  0  0  0  0  0  0  0  0  0  0
    2.3037    1.9982   -1.4004 C   0  0  0  0  0  0  0  0  0  0  0  0
    3.2936    2.9669   -1.9993 C   0  0  0  0  0  0  0  0  0  0  0  0
    3.8115    2.7375   -3.2823 C   0  0  0  0  0  0  0  0  0  0  0  0
    4.7025    3.6442   -3.8675 C   0  0  0  0  0  0  0  0  0  0  0  0
    5.0967    4.7949   -3.1765 C   0  0  0  0  0  0  0  0  0  0  0  0
    6.0382    5.7501   -3.7877 C   0  0  0  0  0  0  0  0  0  0  0  0
    5.5532    6.7519   -4.5443 C   0  0  0  0  0  0  0  0  0  0  0  0
    6.3950    7.6759   -5.1187 N   0  0  0  0  0  0  0  0  0  0  0  0
    7.7612    7.6680   -4.9738 C   0  0  0  0  0  0  0  0  0  0  0  0
    8.4932    8.5093   -5.4847 O   0  0  0  0  0  0  0  0  0  0  0  0
    8.3113    6.5584   -4.1528 C   0  0  0  0  0  0  0  0  0  0  0  0
    7.4806    5.6619   -3.6047 C   0  0  0  0  0  0  0  0  0  0  0  0
    4.6043    5.0142   -1.8839 C   0  0  0  0  0  0  0  0  0  0  0  0
    3.7188    4.1022   -1.2955 C   0  0  0  0  0  0  0  0  0  0  0  0
    3.7049   -1.3254   -0.2124 C   0  0  0  0  0  0  0  0  0  0  0  0
    3.6856   -2.6789   -0.5613 C   0  0  0  0  0  0  0  0  0  0  0  0
    4.5029   -3.5946    0.1126 C   0  0  0  0  0  0  0  0  0  0  0  0
    5.3650   -3.1871    1.1483 C   0  0  0  0  0  0  0  0  0  0  0  0
    6.2285   -4.1496    1.8499 C   0  0  0  0  0  0  0  0  0  0  0  0
    6.7588   -5.2829    1.2511 C   0  0  0  0  0  0  0  0  0  0  0  0
    7.5219   -6.2035    1.8792 N   0  0  0  0  0  0  0  0  0  0  0  0
    7.7731   -5.9628    3.1723 C   0  0  0  0  0  0  0  0  0  0  0  0
    7.3496   -4.9008    3.8685 N   0  0  0  0  0  0  0  0  0  0  0  0
    6.5859   -4.0224    3.1845 C   0  0  0  0  0  0  0  0  0  0  0  0
    5.3545   -1.8267    1.4959 C   0  0  0  0  0  0  0  0  0  0  0  0
    4.5283   -0.9203    0.8343 C   0  0  0  0  0  0  0  0  0  0  0  0
    4.5612    0.3584    1.2437 F   0  0  0  0  0  0  0  0  0  0  0  0
    3.5415    1.2382    0.1296 H   0  0  0  0  0  0  0  0  0  0  0  0
    1.6402    2.5185   -0.6997 H   0  0  0  0  0  0  0  0  0  0  0  0
    1.6703    1.5741   -2.1876 H   0  0  0  0  0  0  0  0  0  0  0  0
    3.5136    1.8491   -3.8368 H   0  0  0  0  0  0  0  0  0  0  0  0
    5.0821    3.4455   -4.8674 H   0  0  0  0  0  0  0  0  0  0  0  0
    4.4932    6.8885   -4.7381 H   0  0  0  0  0  0  0  0  0  0  0  0
    6.0188    8.4285   -5.6810 H   0  0  0  0  0  0  0  0  0  0  0  0
    9.3876    6.5223   -4.0347 H   0  0  0  0  0  0  0  0  0  0  0  0
    7.8694    4.8429   -3.0095 H   0  0  0  0  0  0  0  0  0  0  0  0
    4.9038    5.9010   -1.3287 H   0  0  0  0  0  0  0  0  0  0  0  0
    3.3556    4.2937   -0.2879 H   0  0  0  0  0  0  0  0  0  0  0  0
    3.0383   -3.0328   -1.3630 H   0  0  0  0  0  0  0  0  0  0  0  0
    4.4449   -4.6397   -0.1884 H   0  0  0  0  0  0  0  0  0  0  0  0
    6.5899   -5.5024    0.1998 H   0  0  0  0  0  0  0  0  0  0  0  0
    8.3704   -6.6951    3.7034 H   0  0  0  0  0  0  0  0  0  0  0  0
    6.2473   -3.1825    3.7859 H   0  0  0  0  0  0  0  0  0  0  0  0
    5.9997   -1.4330    2.2775 H   0  0  0  0  0  0  0  0  0  0  0  0
  1  2  2  0  0  0  0
  2  3  1  0  0  0  0
  2 18  1  0  0  0  0
  3  4  1  0  0  0  0
  3 31  1  0  0  0  0
  4  5  1  0  0  0  0
  4 32  1  0  0  0  0
  4 33  1  0  0  0  0
  5  6  2  0  0  0  0
  5 17  1  0  0  0  0
  6  7  1  0  0  0  0
  6 34  1  0  0  0  0
  7  8  2  0  0  0  0
  7 35  1  0  0  0  0
  8  9  1  0  0  0  0
  8 16  1  0  0  0  0
  9 10  2  0  0  0  0
  9 15  1  0  0  0  0
 10 11  1  0  0  0  0
 10 36  1  0  0  0  0
 11 12  1  0  0  0  0
 11 37  1  0  0  0  0
 12 13  2  0  0  0  0
 12 14  1  0  0  0  0
 14 15  2  0  0  0  0
 14 38  1  0  0  0  0
 15 39  1  0  0  0  0
 16 17  2  0  0  0  0
 16 40  1  0  0  0  0
 17 41  1  0  0  0  0
 18 19  2  0  0  0  0
 18 29  1  0  0  0  0
 19 20  1  0  0  0  0
 19 42  1  0  0  0  0
 20 21  2  0  0  0  0
 20 43  1  0  0  0  0
 21 22  1  0  0  0  0
 21 28  1  0  0  0  0
 22 23  2  0  0  0  0
 22 27  1  0  0  0  0
 23 24  1  0  0  0  0
 23 44  1  0  0  0  0
 24 25  2  0  0  0  0
 25 26  1  0  0  0  0
 25 45  1  0  0  0  0
 26 27  2  0  0  0  0
 27 46  1  0  0  0  0
 28 29  2  0  0  0  0
 28 47  1  0  0  0  0
 29 30  1  0  0  0  0
M  END
$$$$
