
 OpenBabel01122422363D

 56 59  0  0  1  0  0  0  0  0999 V2000
    1.4973    0.3201    1.4608 C   0  0  0  0  0  0  0  0  0  0  0  0
    2.8978    0.4659    1.2230 O   0  0  0  0  0  0  0  0  0  0  0  0
    3.2205    1.4365    0.3109 C   0  0  0  0  0  0  0  0  0  0  0  0
    2.4389    2.5618    0.0547 C   0  0  0  0  0  0  0  0  0  0  0  0
    2.7893    3.4372   -0.9700 C   0  0  0  0  0  0  0  0  0  0  0  0
    3.9755    3.2501   -1.6742 C   0  0  0  0  0  0  0  0  0  0  0  0
    4.8648    2.2374   -1.2959 C   0  0  0  0  0  0  0  0  0  0  0  0
    6.2830    2.2260   -1.8334 C   0  0  0  0  0  0  0  0  0  0  0  0
    7.0777    3.5279   -1.4965 C   0  0  3  0  0  0  0  0  0  0  0  0
    7.1751    3.7593   -0.0556 N   0  0  0  0  0  0  0  0  0  0  0  0
    7.3485    5.0170    0.5009 C   0  0  0  0  0  0  0  0  0  0  0  0
    7.2855    6.0748   -0.1123 O   0  0  0  0  0  0  0  0  0  0  0  0
    7.7289    4.9932    1.9458 C   0  0  0  0  0  0  0  0  0  0  0  0
    7.1864    3.9989    2.7732 C   0  0  0  0  0  0  0  0  0  0  0  0
    7.7718    3.7248    4.0033 C   0  0  0  0  0  0  0  0  0  0  0  0
    8.8856    4.4543    4.4140 C   0  0  0  0  0  0  0  0  0  0  0  0
    9.3560    5.5348    3.6476 C   0  0  0  0  0  0  0  0  0  0  0  0
   10.5217    6.2163    4.1021 N   0  0  0  0  0  0  0  0  0  0  0  0
   11.4846    5.5094    4.7601 N   0  0  0  0  0  0  0  0  0  0  0  0
   12.4828    6.3696    4.9282 C   0  0  0  0  0  0  0  0  0  0  0  0
   12.1561    7.6649    4.5046 C   0  0  0  0  0  0  0  0  0  0  0  0
   12.9523    8.8406    4.6464 C   0  0  0  0  0  0  0  0  0  0  0  0
   13.5992    9.7910    4.8009 N   0  0  0  0  0  0  0  0  0  0  0  0
   10.8711    7.5705    3.9926 C   0  0  0  0  0  0  0  0  0  0  0  0
   10.0323    8.5472    3.5576 N   0  0  0  0  0  0  0  0  0  0  0  0
    8.7543    5.8337    2.4160 C   0  0  0  0  0  0  0  0  0  0  0  0
    8.4806    3.4965   -2.0952 C   0  0  0  0  0  0  0  0  0  0  0  0
    8.8745    4.5074   -2.9862 C   0  0  0  0  0  0  0  0  0  0  0  0
   10.1716    4.5427   -3.5020 C   0  0  0  0  0  0  0  0  0  0  0  0
   11.0969    3.5700   -3.1327 C   0  0  0  0  0  0  0  0  0  0  0  0
   10.7221    2.5545   -2.2561 C   0  0  0  0  0  0  0  0  0  0  0  0
    9.4231    2.5157   -1.7401 C   0  0  0  0  0  0  0  0  0  0  0  0
    4.4440    1.2877   -0.3494 C   0  0  0  0  0  0  0  0  0  0  0  0
    1.3447   -0.5650    2.0848 H   0  0  0  0  0  0  0  0  0  0  0  0
    0.9500    0.1691    0.5226 H   0  0  0  0  0  0  0  0  0  0  0  0
    1.0977    1.1779    2.0115 H   0  0  0  0  0  0  0  0  0  0  0  0
    1.5548    2.7865    0.6405 H   0  0  0  0  0  0  0  0  0  0  0  0
    2.1504    4.2863   -1.1960 H   0  0  0  0  0  0  0  0  0  0  0  0
    4.2248    3.9387   -2.4780 H   0  0  0  0  0  0  0  0  0  0  0  0
    6.2479    2.0764   -2.9205 H   0  0  0  0  0  0  0  0  0  0  0  0
    6.8070    1.3538   -1.4210 H   0  0  0  0  0  0  0  0  0  0  0  0
    6.5394    4.3856   -1.9183 H   0  0  0  0  0  0  0  0  0  0  0  0
    7.4508    2.9618    0.4991 H   0  0  0  0  0  0  0  0  0  0  0  0
    6.3396    3.4022    2.4395 H   0  0  0  0  0  0  0  0  0  0  0  0
    7.3932    2.9129    4.6186 H   0  0  0  0  0  0  0  0  0  0  0  0
    9.3749    4.1831    5.3488 H   0  0  0  0  0  0  0  0  0  0  0  0
   13.4041    6.0204    5.3780 H   0  0  0  0  0  0  0  0  0  0  0  0
   10.2373    9.5283    3.7563 H   0  0  0  0  0  0  0  0  0  0  0  0
    9.0261    8.3843    3.4980 H   0  0  0  0  0  0  0  0  0  0  0  0
    9.1511    6.6085    1.7628 H   0  0  0  0  0  0  0  0  0  0  0  0
    8.1762    5.2942   -3.2656 H   0  0  0  0  0  0  0  0  0  0  0  0
   10.4626    5.3411   -4.1796 H   0  0  0  0  0  0  0  0  0  0  0  0
   12.1117    3.6104   -3.5200 H   0  0  0  0  0  0  0  0  0  0  0  0
   11.4476    1.7994   -1.9638 H   0  0  0  0  0  0  0  0  0  0  0  0
    9.1650    1.7226   -1.0434 H   0  0  0  0  0  0  0  0  0  0  0  0
    5.0740    0.4351   -0.1059 H   0  0  0  0  0  0  0  0  0  0  0  0
  1  2  1  0  0  0  0
  1 34  1  0  0  0  0
  1 35  1  0  0  0  0
  1 36  1  0  0  0  0
  2  3  1  0  0  0  0
  3  4  2  0  0  0  0
  3 33  1  0  0  0  0
  4  5  1  0  0  0  0
  4 37  1  0  0  0  0
  5  6  2  0  0  0  0
  5 38  1  0  0  0  0
  6  7  1  0  0  0  0
  6 39  1  0  0  0  0
  7  8  1  0  0  0  0
  7 33  2  0  0  0  0
  8  9  1  0  0  0  0
  8 40  1  0  0  0  0
  8 41  1  0  0  0  0
  9 10  1  0  0  0  0
  9 27  1  0  0  0  0
  9 42  1  0  0  0  0
 10 11  1  0  0  0  0
 10 43  1  0  0  0  0
 11 12  2  0  0  0  0
 11 13  1  0  0  0  0
 13 14  2  0  0  0  0
 13 26  1  0  0  0  0
 14 15  1  0  0  0  0
 14 44  1  0  0  0  0
 15 16  2  0  0  0  0
 15 45  1  0  0  0  0
 16 17  1  0  0  0  0
 16 46  1  0  0  0  0
 17 18  1  0  0  0  0
 17 26  2  0  0  0  0
 18 19  1  0  0  0  0
 18 24  1  0  0  0  0
 19 20  2  0  0  0  0
 20 21  1  0  0  0  0
 20 47  1  0  0  0  0
 21 22  1  0  0  0  0
 21 24  2  0  0  0  0
 22 23  3  0  0  0  0
 24 25  1  0  0  0  0
 25 48  1  0  0  0  0
 25 49  1  0  0  0  0
 26 50  1  0  0  0  0
 27 28  2  0  0  0  0
 27 32  1  0  0  0  0
 28 29  1  0  0  0  0
 28 51  1  0  0  0  0
 29 30  2  0  0  0  0
 29 52  1  0  0  0  0
 30 31  1  0  0  0  0
 30 53  1  0  0  0  0
 31 32  2  0  0  0  0
 31 54  1  0  0  0  0
 32 55  1  0  0  0  0
 33 56  1  0  0  0  0
M  END
$$$$
