
 OpenBabel01122422363D

 56 59  0  0  0  0  0  0  0  0999 V2000
   10.4951    5.9724    2.9520 C   0  0  0  0  0  0  0  0  0  0  0  0
    9.9779    4.8121    2.2508 N   0  0  0  0  0  0  0  0  0  0  0  0
    8.6497    4.7735    1.8601 C   0  0  0  0  0  0  0  0  0  0  0  0
    7.8495    5.6872    2.0543 O   0  0  0  0  0  0  0  0  0  0  0  0
    8.2178    3.6262    1.2342 N   0  0  0  0  0  0  0  0  0  0  0  0
    8.9930    2.4699    1.1047 C   0  0  0  0  0  0  0  0  0  0  0  0
    8.4537    1.2641    0.6079 C   0  0  0  0  0  0  0  0  0  0  0  0
    9.2076    0.0644    0.6415 C   0  0  0  0  0  0  0  0  0  0  0  0
    8.5731   -1.2325    0.1592 C   0  0  0  0  0  0  0  0  0  0  0  0
    7.3431   -1.2343    0.0458 O   0  0  0  0  0  0  0  0  0  0  0  0
    9.2978   -2.3910   -0.1840 N   0  0  0  0  0  0  0  0  0  0  0  0
    8.5660   -3.6451   -0.4640 C   0  0  0  0  0  0  0  0  0  0  0  0
    8.0568   -3.8528   -1.8954 C   0  0  0  0  0  0  0  0  0  0  0  0
    7.6535   -2.7389   -2.5730 N   0  0  0  0  0  0  0  0  0  0  0  0
    7.8815   -4.9680   -2.3834 O   0  0  0  0  0  0  0  0  0  0  0  0
   10.7439   -2.5571   -0.1997 C   0  0  0  0  0  0  0  0  0  0  0  0
   11.3123   -3.0917    1.1113 C   0  0  0  0  0  0  0  0  0  0  0  0
   10.6081   -3.0736    2.3294 C   0  0  0  0  0  0  0  0  0  0  0  0
   11.2723   -3.2713    3.5422 C   0  0  0  0  0  0  0  0  0  0  0  0
   12.6539   -3.4480    3.5569 C   0  0  0  0  0  0  0  0  0  0  0  0
   13.3630   -3.4827    2.3571 C   0  0  0  0  0  0  0  0  0  0  0  0
   14.7369   -3.5475    2.4678 O   0  0  0  0  0  0  0  0  0  0  0  0
   15.5278   -3.0179    1.4691 C   0  0  0  0  0  0  0  0  0  0  0  0
   15.1736   -1.9257    0.6676 C   0  0  0  0  0  0  0  0  0  0  0  0
   15.9525   -1.5847   -0.4366 C   0  0  0  0  0  0  0  0  0  0  0  0
   17.1472   -2.2584   -0.6752 C   0  0  0  0  0  0  0  0  0  0  0  0
   17.5744   -3.2521    0.2061 C   0  0  0  0  0  0  0  0  0  0  0  0
   16.7628   -3.6351    1.2754 C   0  0  0  0  0  0  0  0  0  0  0  0
   12.6725   -3.4163    1.1412 C   0  0  0  0  0  0  0  0  0  0  0  0
   10.4798    0.1454    1.2162 C   0  0  0  0  0  0  0  0  0  0  0  0
   11.0558    1.3517    1.6064 C   0  0  0  0  0  0  0  0  0  0  0  0
   10.3048    2.5115    1.5532 C   0  0  0  0  0  0  0  0  0  0  0  0
   10.8651    3.7601    2.0838 C   0  0  0  0  0  0  0  0  0  0  0  0
   12.0564    3.8059    2.3825 O   0  0  0  0  0  0  0  0  0  0  0  0
    9.7788    6.7951    2.9922 H   0  0  0  0  0  0  0  0  0  0  0  0
   11.4163    6.3147    2.4674 H   0  0  0  0  0  0  0  0  0  0  0  0
   10.7493    5.6685    3.9746 H   0  0  0  0  0  0  0  0  0  0  0  0
    7.2366    3.6211    0.9838 H   0  0  0  0  0  0  0  0  0  0  0  0
    7.4295    1.2429    0.2365 H   0  0  0  0  0  0  0  0  0  0  0  0
    7.7187   -3.7354    0.2200 H   0  0  0  0  0  0  0  0  0  0  0  0
    9.2446   -4.4869   -0.2639 H   0  0  0  0  0  0  0  0  0  0  0  0
    7.3697   -1.9342   -2.0312 H   0  0  0  0  0  0  0  0  0  0  0  0
    7.1252   -2.9177   -3.4224 H   0  0  0  0  0  0  0  0  0  0  0  0
   11.2134   -1.5985   -0.4440 H   0  0  0  0  0  0  0  0  0  0  0  0
   11.0144   -3.2252   -1.0263 H   0  0  0  0  0  0  0  0  0  0  0  0
    9.5466   -2.8368    2.3619 H   0  0  0  0  0  0  0  0  0  0  0  0
   10.7207   -3.2242    4.4785 H   0  0  0  0  0  0  0  0  0  0  0  0
   13.1801   -3.5321    4.5043 H   0  0  0  0  0  0  0  0  0  0  0  0
   14.2657   -1.3615    0.8576 H   0  0  0  0  0  0  0  0  0  0  0  0
   15.6206   -0.8011   -1.1126 H   0  0  0  0  0  0  0  0  0  0  0  0
   17.7518   -1.9995   -1.5399 H   0  0  0  0  0  0  0  0  0  0  0  0
   18.5308   -3.7429    0.0482 H   0  0  0  0  0  0  0  0  0  0  0  0
   17.0861   -4.4273    1.9455 H   0  0  0  0  0  0  0  0  0  0  0  0
   13.2092   -3.5106    0.2004 H   0  0  0  0  0  0  0  0  0  0  0  0
   11.0799   -0.7159    1.4396 H   0  0  0  0  0  0  0  0  0  0  0  0
   12.0658    1.3618    2.0107 H   0  0  0  0  0  0  0  0  0  0  0  0
  1  2  1  0  0  0  0
  1 35  1  0  0  0  0
  1 36  1  0  0  0  0
  1 37  1  0  0  0  0
  2  3  1  0  0  0  0
  2 33  1  0  0  0  0
  3  4  2  0  0  0  0
  3  5  1  0  0  0  0
  5  6  1  0  0  0  0
  5 38  1  0  0  0  0
  6  7  2  0  0  0  0
  6 32  1  0  0  0  0
  7  8  1  0  0  0  0
  7 39  1  0  0  0  0
  8  9  1  0  0  0  0
  8 30  2  0  0  0  0
  9 10  2  0  0  0  0
  9 11  1  0  0  0  0
 11 12  1  0  0  0  0
 11 16  1  0  0  0  0
 12 13  1  0  0  0  0
 12 40  1  0  0  0  0
 12 41  1  0  0  0  0
 13 14  1  0  0  0  0
 13 15  2  0  0  0  0
 14 42  1  0  0  0  0
 14 43  1  0  0  0  0
 16 17  1  0  0  0  0
 16 44  1  0  0  0  0
 16 45  1  0  0  0  0
 17 18  2  0  0  0  0
 17 29  1  0  0  0  0
 18 19  1  0  0  0  0
 18 46  1  0  0  0  0
 19 20  2  0  0  0  0
 19 47  1  0  0  0  0
 20 21  1  0  0  0  0
 20 48  1  0  0  0  0
 21 22  1  0  0  0  0
 21 29  2  0  0  0  0
 22 23  1  0  0  0  0
 23 24  2  0  0  0  0
 23 28  1  0  0  0  0
 24 25  1  0  0  0  0
 24 49  1  0  0  0  0
 25 26  2  0  0  0  0
 25 50  1  0  0  0  0
 26 27  1  0  0  0  0
 26 51  1  0  0  0  0
 27 28  2  0  0  0  0
 27 52  1  0  0  0  0
 28 53  1  0  0  0  0
 29 54  1  0  0  0  0
 30 31  1  0  0  0  0
 30 55  1  0  0  0  0
 31 32  2  0  0  0  0
 31 56  1  0  0  0  0
 32 33  1  0  0  0  0
 33 34  2  0  0  0  0
M  END
$$$$
