
 OpenBabel01122422363D

 46 49  0  0  1  0  0  0  0  0999 V2000
    1.1078   -0.3239   -0.0055 O   0  0  0  0  0  0  0  0  0  0  0  0
    2.3262   -0.1640   -0.0267 C   0  0  0  0  0  0  0  0  0  0  0  0
    3.0307   -0.0882   -1.2043 N   0  0  0  0  0  0  0  0  0  0  0  0
    2.3753   -0.1201   -2.4878 C   0  0  3  0  0  0  0  0  0  0  0  0
    1.9370    1.2798   -2.9016 C   0  0  0  0  0  0  0  0  0  0  0  0
    0.6559    1.7352   -2.5458 C   0  0  0  0  0  0  0  0  0  0  0  0
    0.2410    3.0309   -2.8558 C   0  0  0  0  0  0  0  0  0  0  0  0
    1.1028    3.8982   -3.5231 C   0  0  0  0  0  0  0  0  0  0  0  0
    2.3923    3.4806   -3.8799 C   0  0  0  0  0  0  0  0  0  0  0  0
    3.3528    4.4146   -4.5747 C   0  0  0  0  0  0  0  0  0  0  0  0
    2.8402    5.6580   -4.7954 F   0  0  0  0  0  0  0  0  0  0  0  0
    4.4994    4.6064   -3.8659 F   0  0  0  0  0  0  0  0  0  0  0  0
    3.7381    3.9511   -5.7961 F   0  0  0  0  0  0  0  0  0  0  0  0
    2.7989    2.1718   -3.5631 C   0  0  0  0  0  0  0  0  0  0  0  0
    3.2877   -0.7887   -3.4709 C   0  0  0  0  0  0  0  0  0  0  0  0
    4.6074   -0.7605   -3.5108 N   0  0  0  0  0  0  0  0  0  0  0  0
    5.0175   -1.5174   -4.5822 N   0  0  0  0  0  0  0  0  0  0  0  0
    3.9448   -1.9949   -5.1685 C   0  0  0  0  0  0  0  0  0  0  0  0
    2.8354   -1.5587   -4.5119 N   0  0  0  0  0  0  0  0  0  0  0  0
    3.1556   -0.0595    1.1827 C   0  0  0  0  0  0  0  0  0  0  0  0
    4.4949    0.1167    1.1326 N   0  0  0  0  0  0  0  0  0  0  0  0
    4.9082    0.1130    2.4367 N   0  0  0  0  0  0  0  0  0  0  0  0
    6.2889    0.2422    2.7619 C   0  0  0  0  0  0  0  0  0  0  0  0
    7.2308    0.4176    1.7337 C   0  0  0  0  0  0  0  0  0  0  0  0
    8.5917    0.5480    2.0349 C   0  0  0  0  0  0  0  0  0  0  0  0
    9.0279    0.5038    3.3580 C   0  0  0  0  0  0  0  0  0  0  0  0
    8.1022    0.3251    4.3820 C   0  0  0  0  0  0  0  0  0  0  0  0
    6.7452    0.1961    4.0837 C   0  0  0  0  0  0  0  0  0  0  0  0
    5.9182    0.0178    5.1214 F   0  0  0  0  0  0  0  0  0  0  0  0
    3.8424   -0.0273    3.2973 C   0  0  0  0  0  0  0  0  0  0  0  0
    2.7247   -0.1345    2.5213 C   0  0  0  0  0  0  0  0  0  0  0  0
    1.4850   -0.2943    3.0058 O   0  0  0  0  0  0  0  0  0  0  0  0
    4.0331    0.0681   -1.1503 H   0  0  0  0  0  0  0  0  0  0  0  0
    1.4778   -0.7484   -2.4009 H   0  0  0  0  0  0  0  0  0  0  0  0
   -0.0239    1.0868   -1.9917 H   0  0  0  0  0  0  0  0  0  0  0  0
   -0.7492    3.3684   -2.5569 H   0  0  0  0  0  0  0  0  0  0  0  0
    0.7692    4.9105   -3.7477 H   0  0  0  0  0  0  0  0  0  0  0  0
    3.8114    1.8598   -3.8262 H   0  0  0  0  0  0  0  0  0  0  0  0
    3.9191   -2.6336   -6.0384 H   0  0  0  0  0  0  0  0  0  0  0  0
    1.8740   -1.7632   -4.7423 H   0  0  0  0  0  0  0  0  0  0  0  0
    6.9242    0.4571    0.6898 H   0  0  0  0  0  0  0  0  0  0  0  0
    9.3122    0.6846    1.2309 H   0  0  0  0  0  0  0  0  0  0  0  0
   10.0848    0.6039    3.5898 H   0  0  0  0  0  0  0  0  0  0  0  0
    8.4262    0.2829    5.4175 H   0  0  0  0  0  0  0  0  0  0  0  0
    3.9563   -0.0452    4.3683 H   0  0  0  0  0  0  0  0  0  0  0  0
    1.4924   -0.3113    3.9779 H   0  0  0  0  0  0  0  0  0  0  0  0
  1  2  2  0  0  0  0
  2  3  1  0  0  0  0
  2 20  1  0  0  0  0
  3  4  1  0  0  0  0
  3 33  1  0  0  0  0
  4  5  1  0  0  0  0
  4 15  1  0  0  0  0
  4 34  1  0  0  0  0
  5  6  2  0  0  0  0
  5 14  1  0  0  0  0
  6  7  1  0  0  0  0
  6 35  1  0  0  0  0
  7  8  2  0  0  0  0
  7 36  1  0  0  0  0
  8  9  1  0  0  0  0
  8 37  1  0  0  0  0
  9 10  1  0  0  0  0
  9 14  2  0  0  0  0
 10 11  1  0  0  0  0
 10 12  1  0  0  0  0
 10 13  1  0  0  0  0
 14 38  1  0  0  0  0
 15 16  2  0  0  0  0
 15 19  1  0  0  0  0
 16 17  1  0  0  0  0
 17 18  2  0  0  0  0
 18 19  1  0  0  0  0
 18 39  1  0  0  0  0
 19 40  1  0  0  0  0
 20 21  2  0  0  0  0
 20 31  1  0  0  0  0
 21 22  1  0  0  0  0
 22 23  1  0  0  0  0
 22 30  1  0  0  0  0
 23 24  2  0  0  0  0
 23 28  1  0  0  0  0
 24 25  1  0  0  0  0
 24 41  1  0  0  0  0
 25 26  2  0  0  0  0
 25 42  1  0  0  0  0
 26 27  1  0  0  0  0
 26 43  1  0  0  0  0
 27 28  2  0  0  0  0
 27 44  1  0  0  0  0
 28 29  1  0  0  0  0
 30 31  2  0  0  0  0
 30 45  1  0  0  0  0
 31 32  1  0  0  0  0
 32 46  1  0  0  0  0
M  END
$$$$
