
 OpenBabel01122422363D

 46 49  0  0  0  0  0  0  0  0999 V2000
   -0.5289    3.2874    4.5572 N   0  0  0  0  0  0  0  0  0  0  0  0
   -0.2265    2.4894    3.7762 C   0  0  0  0  0  0  0  0  0  0  0  0
    0.1732    1.4792    2.8227 C   0  0  0  0  0  0  0  0  0  0  0  0
    1.3752    0.8021    3.0575 C   0  0  0  0  0  0  0  0  0  0  0  0
    1.8257   -0.1857    2.1787 C   0  0  0  0  0  0  0  0  0  0  0  0
    1.0750   -0.5136    1.0540 C   0  0  0  0  0  0  0  0  0  0  0  0
   -0.1248    0.1405    0.8126 C   0  0  0  0  0  0  0  0  0  0  0  0
   -0.5942    1.1445    1.6836 C   0  0  0  0  0  0  0  0  0  0  0  0
   -1.9138    1.7888    1.3477 C   0  0  0  0  0  0  0  0  0  0  0  0
   -1.8171    2.4521    0.0716 O   0  0  0  0  0  0  0  0  0  0  0  0
   -2.7789    3.4079   -0.1314 C   0  0  0  0  0  0  0  0  0  0  0  0
   -2.4990    4.4537   -1.0192 C   0  0  0  0  0  0  0  0  0  0  0  0
   -3.4110    5.5092   -1.1685 C   0  0  0  0  0  0  0  0  0  0  0  0
   -4.6058    5.5069   -0.4313 C   0  0  0  0  0  0  0  0  0  0  0  0
   -5.5640    6.6403   -0.5189 C   0  0  0  0  0  0  0  0  0  0  0  0
   -5.6097    7.2997   -1.5486 O   0  0  0  0  0  0  0  0  0  0  0  0
   -6.2908    6.8914    0.6436 N   0  0  0  0  0  0  0  0  0  0  0  0
   -7.2382    7.8889    0.7975 C   0  0  0  0  0  0  0  0  0  0  0  0
   -7.9554    8.3489   -0.2392 C   0  0  0  0  0  0  0  0  0  0  0  0
   -8.9350    9.4437   -0.1073 C   0  0  0  0  0  0  0  0  0  0  0  0
   -9.5600    9.8554   -1.0765 O   0  0  0  0  0  0  0  0  0  0  0  0
   -9.0990    9.9707    1.1382 N   0  0  0  0  0  0  0  0  0  0  0  0
   -8.3619    9.5533    2.2513 C   0  0  0  0  0  0  0  0  0  0  0  0
   -8.4930   10.2112    3.4674 C   0  0  0  0  0  0  0  0  0  0  0  0
   -7.7529    9.9207    4.5585 N   0  0  0  0  0  0  0  0  0  0  0  0
   -6.8563    8.9225    4.4294 C   0  0  0  0  0  0  0  0  0  0  0  0
   -6.6803    8.1814    3.2679 C   0  0  0  0  0  0  0  0  0  0  0  0
   -7.4394    8.5037    2.1354 C   0  0  0  0  0  0  0  0  0  0  0  0
   -4.9141    4.4182    0.3810 C   0  0  0  0  0  0  0  0  0  0  0  0
   -4.0126    3.3770    0.5200 C   0  0  0  0  0  0  0  0  0  0  0  0
    1.9805    1.0427    3.9311 H   0  0  0  0  0  0  0  0  0  0  0  0
    2.7659   -0.6960    2.3690 H   0  0  0  0  0  0  0  0  0  0  0  0
    1.4263   -1.2789    0.3654 H   0  0  0  0  0  0  0  0  0  0  0  0
   -0.7079   -0.1237   -0.0728 H   0  0  0  0  0  0  0  0  0  0  0  0
   -2.1989    2.4965    2.1339 H   0  0  0  0  0  0  0  0  0  0  0  0
   -2.6778    0.9987    1.3018 H   0  0  0  0  0  0  0  0  0  0  0  0
   -1.5650    4.4684   -1.5807 H   0  0  0  0  0  0  0  0  0  0  0  0
   -3.1824    6.3353   -1.8414 H   0  0  0  0  0  0  0  0  0  0  0  0
   -5.9696    6.4323    1.4841 H   0  0  0  0  0  0  0  0  0  0  0  0
   -7.8646    7.9539   -1.2432 H   0  0  0  0  0  0  0  0  0  0  0  0
   -9.7470   10.7451    1.2010 H   0  0  0  0  0  0  0  0  0  0  0  0
   -9.1906   11.0330    3.5969 H   0  0  0  0  0  0  0  0  0  0  0  0
   -6.2406    8.7381    5.3064 H   0  0  0  0  0  0  0  0  0  0  0  0
   -5.9228    7.4088    3.2699 H   0  0  0  0  0  0  0  0  0  0  0  0
   -5.8602    4.3494    0.9064 H   0  0  0  0  0  0  0  0  0  0  0  0
   -4.2949    2.5494    1.1602 H   0  0  0  0  0  0  0  0  0  0  0  0
  1  2  3  0  0  0  0
  2  3  1  0  0  0  0
  3  4  2  0  0  0  0
  3  8  1  0  0  0  0
  4  5  1  0  0  0  0
  4 31  1  0  0  0  0
  5  6  2  0  0  0  0
  5 32  1  0  0  0  0
  6  7  1  0  0  0  0
  6 33  1  0  0  0  0
  7  8  2  0  0  0  0
  7 34  1  0  0  0  0
  8  9  1  0  0  0  0
  9 10  1  0  0  0  0
  9 35  1  0  0  0  0
  9 36  1  0  0  0  0
 10 11  1  0  0  0  0
 11 12  2  0  0  0  0
 11 30  1  0  0  0  0
 12 13  1  0  0  0  0
 12 37  1  0  0  0  0
 13 14  2  0  0  0  0
 13 38  1  0  0  0  0
 14 15  1  0  0  0  0
 14 29  1  0  0  0  0
 15 16  2  0  0  0  0
 15 17  1  0  0  0  0
 17 18  1  0  0  0  0
 17 39  1  0  0  0  0
 18 19  2  0  0  0  0
 18 28  1  0  0  0  0
 19 20  1  0  0  0  0
 19 40  1  0  0  0  0
 20 21  2  0  0  0  0
 20 22  1  0  0  0  0
 22 23  1  0  0  0  0
 22 41  1  0  0  0  0
 23 24  2  0  0  0  0
 23 28  1  0  0  0  0
 24 25  1  0  0  0  0
 24 42  1  0  0  0  0
 25 26  2  0  0  0  0
 26 27  1  0  0  0  0
 26 43  1  0  0  0  0
 27 28  2  0  0  0  0
 27 44  1  0  0  0  0
 29 30  2  0  0  0  0
 29 45  1  0  0  0  0
 30 46  1  0  0  0  0
M  END
$$$$
