
 OpenBabel01122422363D

 56 59  0  0  0  0  0  0  0  0999 V2000
    2.7525    0.6499    0.8386 O   0  0  0  0  0  0  0  0  0  0  0  0
    2.1823    0.2248   -0.1645 C   0  0  0  0  0  0  0  0  0  0  0  0
    0.6628    0.1980   -0.2880 C   0  0  0  0  0  0  0  0  0  0  0  0
    0.2282    1.4302   -0.8519 O   0  0  0  0  0  0  0  0  0  0  0  0
   -1.0567    1.7939   -0.5466 C   0  0  0  0  0  0  0  0  0  0  0  0
   -2.0908    0.8985   -0.2646 C   0  0  0  0  0  0  0  0  0  0  0  0
   -3.3727    1.3756    0.0197 C   0  0  0  0  0  0  0  0  0  0  0  0
   -3.6220    2.7486    0.0231 C   0  0  0  0  0  0  0  0  0  0  0  0
   -2.5834    3.6494   -0.2221 C   0  0  0  0  0  0  0  0  0  0  0  0
   -2.7546    5.0181   -0.2207 O   0  0  0  0  0  0  0  0  0  0  0  0
   -3.5655    5.5752    0.7653 C   0  0  0  0  0  0  0  0  0  0  0  0
   -4.1234    6.8129    0.4837 C   0  0  0  0  0  0  0  0  0  0  0  0
   -4.9673    7.3870    1.4316 C   0  0  0  0  0  0  0  0  0  0  0  0
   -5.2157    6.7117    2.6224 C   0  0  0  0  0  0  0  0  0  0  0  0
   -4.5897    5.4941    2.8274 C   0  0  0  0  0  0  0  0  0  0  0  0
   -3.7615    4.9181    1.9329 N   0  0  0  0  0  0  0  0  0  0  0  0
   -1.3142    3.1686   -0.5505 C   0  0  0  0  0  0  0  0  0  0  0  0
    2.8676   -0.2583   -1.2590 N   0  0  0  0  0  0  0  0  0  0  0  0
    4.2994   -0.3884   -1.2203 C   0  0  0  0  0  0  0  0  0  0  0  0
    4.8078   -0.3624   -2.6094 C   0  0  0  0  0  0  0  0  0  0  0  0
    5.0258   -1.4133   -3.4808 C   0  0  0  0  0  0  0  0  0  0  0  0
    5.5162   -0.8241   -4.6535 C   0  0  0  0  0  0  0  0  0  0  0  0
    5.6204    0.4997   -4.5462 N   0  0  0  0  0  0  0  0  0  0  0  0
    5.1773    0.7729   -3.2975 N   0  0  0  0  0  0  0  0  0  0  0  0
    5.0745    2.1723   -2.8976 C   0  0  0  0  0  0  0  0  0  0  0  0
    6.0936    2.5743   -1.8312 C   0  0  0  0  0  0  0  0  0  0  0  0
    6.1019    4.0499   -1.5004 C   0  0  0  0  0  0  0  0  0  0  0  0
    5.7169    4.4926   -0.2256 C   0  0  0  0  0  0  0  0  0  0  0  0
    5.8163    5.8430    0.1181 C   0  0  0  0  0  0  0  0  0  0  0  0
    6.2946    6.7651   -0.8093 C   0  0  0  0  0  0  0  0  0  0  0  0
    6.6603    6.3405   -2.0850 C   0  0  0  0  0  0  0  0  0  0  0  0
    6.5618    4.9896   -2.4308 C   0  0  0  0  0  0  0  0  0  0  0  0
    0.2673    0.0358    0.7227 H   0  0  0  0  0  0  0  0  0  0  0  0
    0.3598   -0.6354   -0.9325 H   0  0  0  0  0  0  0  0  0  0  0  0
   -1.9352   -0.1750   -0.2658 H   0  0  0  0  0  0  0  0  0  0  0  0
   -4.1761    0.6854    0.2513 H   0  0  0  0  0  0  0  0  0  0  0  0
   -4.6237    3.1041    0.2481 H   0  0  0  0  0  0  0  0  0  0  0  0
   -3.9170    7.3130   -0.4558 H   0  0  0  0  0  0  0  0  0  0  0  0
   -5.4333    8.3495    1.2411 H   0  0  0  0  0  0  0  0  0  0  0  0
   -5.8793    7.1235    3.3745 H   0  0  0  0  0  0  0  0  0  0  0  0
   -4.7478    4.9262    3.7398 H   0  0  0  0  0  0  0  0  0  0  0  0
   -0.5122    3.8648   -0.7835 H   0  0  0  0  0  0  0  0  0  0  0  0
    2.3628   -0.7290   -1.9985 H   0  0  0  0  0  0  0  0  0  0  0  0
    4.5305   -1.3508   -0.7478 H   0  0  0  0  0  0  0  0  0  0  0  0
    4.7352    0.3839   -0.5873 H   0  0  0  0  0  0  0  0  0  0  0  0
    4.8497   -2.4628   -3.2902 H   0  0  0  0  0  0  0  0  0  0  0  0
    5.8023   -1.3027   -5.5817 H   0  0  0  0  0  0  0  0  0  0  0  0
    4.0432    2.3443   -2.5704 H   0  0  0  0  0  0  0  0  0  0  0  0
    5.2242    2.7700   -3.8058 H   0  0  0  0  0  0  0  0  0  0  0  0
    7.1059    2.2850   -2.1411 H   0  0  0  0  0  0  0  0  0  0  0  0
    5.9079    2.0192   -0.9086 H   0  0  0  0  0  0  0  0  0  0  0  0
    5.3541    3.7884    0.5212 H   0  0  0  0  0  0  0  0  0  0  0  0
    5.5347    6.1721    1.1153 H   0  0  0  0  0  0  0  0  0  0  0  0
    6.3882    7.8129   -0.5360 H   0  0  0  0  0  0  0  0  0  0  0  0
    7.0340    7.0604   -2.8088 H   0  0  0  0  0  0  0  0  0  0  0  0
    6.8711    4.6778   -3.4259 H   0  0  0  0  0  0  0  0  0  0  0  0
  1  2  2  0  0  0  0
  2  3  1  0  0  0  0
  2 18  1  0  0  0  0
  3  4  1  0  0  0  0
  3 33  1  0  0  0  0
  3 34  1  0  0  0  0
  4  5  1  0  0  0  0
  5  6  2  0  0  0  0
  5 17  1  0  0  0  0
  6  7  1  0  0  0  0
  6 35  1  0  0  0  0
  7  8  2  0  0  0  0
  7 36  1  0  0  0  0
  8  9  1  0  0  0  0
  8 37  1  0  0  0  0
  9 10  1  0  0  0  0
  9 17  2  0  0  0  0
 10 11  1  0  0  0  0
 11 12  2  0  0  0  0
 11 16  1  0  0  0  0
 12 13  1  0  0  0  0
 12 38  1  0  0  0  0
 13 14  2  0  0  0  0
 13 39  1  0  0  0  0
 14 15  1  0  0  0  0
 14 40  1  0  0  0  0
 15 16  2  0  0  0  0
 15 41  1  0  0  0  0
 17 42  1  0  0  0  0
 18 19  1  0  0  0  0
 18 43  1  0  0  0  0
 19 20  1  0  0  0  0
 19 44  1  0  0  0  0
 19 45  1  0  0  0  0
 20 21  2  0  0  0  0
 20 24  1  0  0  0  0
 21 22  1  0  0  0  0
 21 46  1  0  0  0  0
 22 23  2  0  0  0  0
 22 47  1  0  0  0  0
 23 24  1  0  0  0  0
 24 25  1  0  0  0  0
 25 26  1  0  0  0  0
 25 48  1  0  0  0  0
 25 49  1  0  0  0  0
 26 27  1  0  0  0  0
 26 50  1  0  0  0  0
 26 51  1  0  0  0  0
 27 28  2  0  0  0  0
 27 32  1  0  0  0  0
 28 29  1  0  0  0  0
 28 52  1  0  0  0  0
 29 30  2  0  0  0  0
 29 53  1  0  0  0  0
 30 31  1  0  0  0  0
 30 54  1  0  0  0  0
 31 32  2  0  0  0  0
 31 55  1  0  0  0  0
 32 56  1  0  0  0  0
M  END
$$$$
