
 OpenBabel01122422353D

 44 47  0  0  0  0  0  0  0  0999 V2000
    4.8890   -2.3371   -1.1025 O   0  0  0  0  0  0  0  0  0  0  0  0
    4.2538   -1.3994   -0.6277 C   0  0  0  0  0  0  0  0  0  0  0  0
    3.0053   -0.9607   -1.0076 N   0  0  0  0  0  0  0  0  0  0  0  0
    2.1833   -1.6748   -1.8958 C   0  0  0  0  0  0  0  0  0  0  0  0
    1.0891   -1.0216   -2.4459 C   0  0  0  0  0  0  0  0  0  0  0  0
    0.2478   -1.7181   -3.3207 C   0  0  0  0  0  0  0  0  0  0  0  0
    0.4909   -3.0559   -3.6092 C   0  0  0  0  0  0  0  0  0  0  0  0
   -0.3057   -3.8503   -4.4637 N   0  0  0  0  0  0  0  0  0  0  0  0
   -1.4701   -3.4658   -5.1032 C   0  0  0  0  0  0  0  0  0  0  0  0
   -2.0155   -2.3720   -4.9810 O   0  0  0  0  0  0  0  0  0  0  0  0
   -2.1004   -4.4529   -6.0283 C   0  0  0  0  0  0  0  0  0  0  0  0
   -3.2760   -4.0690   -6.6939 C   0  0  0  0  0  0  0  0  0  0  0  0
   -3.8841   -4.8893   -7.6510 C   0  0  0  0  0  0  0  0  0  0  0  0
   -3.2622   -6.1070   -7.9400 C   0  0  0  0  0  0  0  0  0  0  0  0
   -3.5893   -7.0747   -8.8632 N   0  0  0  0  0  0  0  0  0  0  0  0
   -2.6741   -8.0931   -8.8214 C   0  0  0  0  0  0  0  0  0  0  0  0
   -1.7621   -7.8023   -7.8330 C   0  0  0  0  0  0  0  0  0  0  0  0
   -2.1101   -6.5385   -7.2812 C   0  0  0  0  0  0  0  0  0  0  0  0
   -1.5398   -5.7065   -6.2989 C   0  0  0  0  0  0  0  0  0  0  0  0
   -0.4340   -6.1199   -5.6570 F   0  0  0  0  0  0  0  0  0  0  0  0
    1.6105   -3.6223   -3.0113 C   0  0  0  0  0  0  0  0  0  0  0  0
    2.4427   -2.9655   -2.1714 N   0  0  0  0  0  0  0  0  0  0  0  0
    4.9406   -0.5999    0.4211 C   0  0  0  0  0  0  0  0  0  0  0  0
    6.3300   -0.4503    0.3018 C   0  0  0  0  0  0  0  0  0  0  0  0
    7.0444    0.1484    1.3275 C   0  0  0  0  0  0  0  0  0  0  0  0
    8.3970    0.2944    1.2502 O   0  0  0  0  0  0  0  0  0  0  0  0
    6.3994    0.5951    2.4740 C   0  0  0  0  0  0  0  0  0  0  0  0
    5.0122    0.4664    2.5870 C   0  0  0  0  0  0  0  0  0  0  0  0
    4.2743   -0.1266    1.5579 C   0  0  0  0  0  0  0  0  0  0  0  0
    2.6983   -0.0428   -0.7222 H   0  0  0  0  0  0  0  0  0  0  0  0
    0.8841    0.0217   -2.2351 H   0  0  0  0  0  0  0  0  0  0  0  0
   -0.5824   -1.1772   -3.7622 H   0  0  0  0  0  0  0  0  0  0  0  0
    0.0171   -4.8020   -4.6142 H   0  0  0  0  0  0  0  0  0  0  0  0
   -3.7264   -3.0988   -6.4827 H   0  0  0  0  0  0  0  0  0  0  0  0
   -4.7842   -4.5676   -8.1663 H   0  0  0  0  0  0  0  0  0  0  0  0
   -4.3735   -7.0209   -9.4994 H   0  0  0  0  0  0  0  0  0  0  0  0
   -2.7480   -8.9327   -9.4998 H   0  0  0  0  0  0  0  0  0  0  0  0
   -0.9127   -8.4134   -7.5550 H   0  0  0  0  0  0  0  0  0  0  0  0
    1.8888   -4.6576   -3.1843 H   0  0  0  0  0  0  0  0  0  0  0  0
    6.8309   -0.8359   -0.5820 H   0  0  0  0  0  0  0  0  0  0  0  0
    8.7003   -0.0812    0.4055 H   0  0  0  0  0  0  0  0  0  0  0  0
    6.9800    1.0254    3.2858 H   0  0  0  0  0  0  0  0  0  0  0  0
    4.5159    0.8004    3.4951 H   0  0  0  0  0  0  0  0  0  0  0  0
    3.2044   -0.2681    1.6833 H   0  0  0  0  0  0  0  0  0  0  0  0
  1  2  2  0  0  0  0
  2  3  1  0  0  0  0
  2 23  1  0  0  0  0
  3  4  1  0  0  0  0
  3 30  1  0  0  0  0
  4  5  2  0  0  0  0
  4 22  1  0  0  0  0
  5  6  1  0  0  0  0
  5 31  1  0  0  0  0
  6  7  2  0  0  0  0
  6 32  1  0  0  0  0
  7  8  1  0  0  0  0
  7 21  1  0  0  0  0
  8  9  1  0  0  0  0
  8 33  1  0  0  0  0
  9 10  2  0  0  0  0
  9 11  1  0  0  0  0
 11 12  2  0  0  0  0
 11 19  1  0  0  0  0
 12 13  1  0  0  0  0
 12 34  1  0  0  0  0
 13 14  2  0  0  0  0
 13 35  1  0  0  0  0
 14 15  1  0  0  0  0
 14 18  1  0  0  0  0
 15 16  1  0  0  0  0
 15 36  1  0  0  0  0
 16 17  2  0  0  0  0
 16 37  1  0  0  0  0
 17 18  1  0  0  0  0
 17 38  1  0  0  0  0
 18 19  2  0  0  0  0
 19 20  1  0  0  0  0
 21 22  2  0  0  0  0
 21 39  1  0  0  0  0
 23 24  2  0  0  0  0
 23 29  1  0  0  0  0
 24 25  1  0  0  0  0
 24 40  1  0  0  0  0
 25 26  1  0  0  0  0
 25 27  2  0  0  0  0
 26 41  1  0  0  0  0
 27 28  1  0  0  0  0
 27 42  1  0  0  0  0
 28 29  2  0  0  0  0
 28 43  1  0  0  0  0
 29 44  1  0  0  0  0
M  END
$$$$
