
 OpenBabel01122422363D

 49 52  0  0  0  0  0  0  0  0999 V2000
    1.1070   -0.4275   -0.0905 O   0  0  0  0  0  0  0  0  0  0  0  0
    2.2802   -0.0893    0.0323 C   0  0  0  0  0  0  0  0  0  0  0  0
    2.9419   -0.1838    1.2414 N   0  0  0  0  0  0  0  0  0  0  0  0
    2.2580   -0.5928    2.4490 C   0  0  0  0  0  0  0  0  0  0  0  0
    2.1817   -2.0689    2.5053 C   0  0  0  0  0  0  0  0  0  0  0  0
    2.9975   -2.9012    3.1162 N   0  0  0  0  0  0  0  0  0  0  0  0
    2.5350   -4.1777    2.9026 N   0  0  0  0  0  0  0  0  0  0  0  0
    1.4507   -4.1015    2.1573 C   0  0  0  0  0  0  0  0  0  0  0  0
    0.6293   -5.2302    1.6411 C   0  0  0  0  0  0  0  0  0  0  0  0
    1.0248   -5.6452    0.2411 C   0  0  0  0  0  0  0  0  0  0  0  0
    2.3295   -6.1144   -0.0170 C   0  0  0  0  0  0  0  0  0  0  0  0
    2.7144   -6.4731   -1.3061 C   0  0  0  0  0  0  0  0  0  0  0  0
    1.7978   -6.3712   -2.3429 C   0  0  0  0  0  0  0  0  0  0  0  0
    2.1604   -6.7022   -3.5895 F   0  0  0  0  0  0  0  0  0  0  0  0
    0.4921   -5.9325   -2.1099 C   0  0  0  0  0  0  0  0  0  0  0  0
    0.1070   -5.5717   -0.8164 C   0  0  0  0  0  0  0  0  0  0  0  0
    1.1910   -2.7852    1.8873 N   0  0  0  0  0  0  0  0  0  0  0  0
    3.0789    0.4395   -1.1194 C   0  0  0  0  0  0  0  0  0  0  0  0
    4.3875   -0.0789   -1.2638 C   0  0  0  0  0  0  0  0  0  0  0  0
    5.1968    0.2860   -2.3378 C   0  0  0  0  0  0  0  0  0  0  0  0
    4.6950    1.1597   -3.2837 C   0  0  0  0  0  0  0  0  0  0  0  0
    5.4251    1.5216   -4.3766 O   0  0  0  0  0  0  0  0  0  0  0  0
    3.4172    1.6992   -3.1494 C   0  0  0  0  0  0  0  0  0  0  0  0
    2.5619    1.3684   -2.0669 C   0  0  0  0  0  0  0  0  0  0  0  0
    1.2206    2.0309   -1.9967 C   0  0  0  0  0  0  0  0  0  0  0  0
    0.5033    2.3612   -3.1683 C   0  0  0  0  0  0  0  0  0  0  0  0
   -0.7492    2.9869   -3.1237 C   0  0  0  0  0  0  0  0  0  0  0  0
   -1.3409    3.2708   -1.9001 C   0  0  0  0  0  0  0  0  0  0  0  0
   -0.6588    2.9718   -0.7275 C   0  0  0  0  0  0  0  0  0  0  0  0
    0.6169    2.3951   -0.7801 C   0  0  0  0  0  0  0  0  0  0  0  0
    3.9466   -0.0939    1.2934 H   0  0  0  0  0  0  0  0  0  0  0  0
    1.2593   -0.1434    2.4753 H   0  0  0  0  0  0  0  0  0  0  0  0
    2.8299   -0.2075    3.2987 H   0  0  0  0  0  0  0  0  0  0  0  0
   -0.4321   -4.9539    1.6701 H   0  0  0  0  0  0  0  0  0  0  0  0
    0.7348   -6.0972    2.3051 H   0  0  0  0  0  0  0  0  0  0  0  0
    3.0528   -6.1853    0.7947 H   0  0  0  0  0  0  0  0  0  0  0  0
    3.7227   -6.8250   -1.5073 H   0  0  0  0  0  0  0  0  0  0  0  0
   -0.2077   -5.8702   -2.9355 H   0  0  0  0  0  0  0  0  0  0  0  0
   -0.9111   -5.2298   -0.6466 H   0  0  0  0  0  0  0  0  0  0  0  0
    0.4560   -2.4016    1.3059 H   0  0  0  0  0  0  0  0  0  0  0  0
    4.7807   -0.8041   -0.5551 H   0  0  0  0  0  0  0  0  0  0  0  0
    6.1954   -0.1303   -2.4236 H   0  0  0  0  0  0  0  0  0  0  0  0
    6.2663    1.0351   -4.3717 H   0  0  0  0  0  0  0  0  0  0  0  0
    3.0981    2.4035   -3.9156 H   0  0  0  0  0  0  0  0  0  0  0  0
    0.9071    2.1301   -4.1521 H   0  0  0  0  0  0  0  0  0  0  0  0
   -1.2628    3.2385   -4.0481 H   0  0  0  0  0  0  0  0  0  0  0  0
   -2.3276    3.7234   -1.8598 H   0  0  0  0  0  0  0  0  0  0  0  0
   -1.1154    3.1811    0.2361 H   0  0  0  0  0  0  0  0  0  0  0  0
    1.1203    2.2186    0.1658 H   0  0  0  0  0  0  0  0  0  0  0  0
  1  2  2  0  0  0  0
  2  3  1  0  0  0  0
  2 18  1  0  0  0  0
  3  4  1  0  0  0  0
  3 31  1  0  0  0  0
  4  5  1  0  0  0  0
  4 32  1  0  0  0  0
  4 33  1  0  0  0  0
  5  6  2  0  0  0  0
  5 17  1  0  0  0  0
  6  7  1  0  0  0  0
  7  8  2  0  0  0  0
  8  9  1  0  0  0  0
  8 17  1  0  0  0  0
  9 10  1  0  0  0  0
  9 34  1  0  0  0  0
  9 35  1  0  0  0  0
 10 11  2  0  0  0  0
 10 16  1  0  0  0  0
 11 12  1  0  0  0  0
 11 36  1  0  0  0  0
 12 13  2  0  0  0  0
 12 37  1  0  0  0  0
 13 14  1  0  0  0  0
 13 15  1  0  0  0  0
 15 16  2  0  0  0  0
 15 38  1  0  0  0  0
 16 39  1  0  0  0  0
 17 40  1  0  0  0  0
 18 19  2  0  0  0  0
 18 24  1  0  0  0  0
 19 20  1  0  0  0  0
 19 41  1  0  0  0  0
 20 21  2  0  0  0  0
 20 42  1  0  0  0  0
 21 22  1  0  0  0  0
 21 23  1  0  0  0  0
 22 43  1  0  0  0  0
 23 24  2  0  0  0  0
 23 44  1  0  0  0  0
 24 25  1  0  0  0  0
 25 26  2  0  0  0  0
 25 30  1  0  0  0  0
 26 27  1  0  0  0  0
 26 45  1  0  0  0  0
 27 28  2  0  0  0  0
 27 46  1  0  0  0  0
 28 29  1  0  0  0  0
 28 47  1  0  0  0  0
 29 30  2  0  0  0  0
 29 48  1  0  0  0  0
 30 49  1  0  0  0  0
M  END
$$$$
