
 OpenBabel01122422363D

 59 62  0  0  1  0  0  0  0  0999 V2000
    1.3556   -0.7541    1.0968 C   0  0  0  0  0  0  0  0  0  0  0  0
    2.7633   -0.5386    1.1460 O   0  0  0  0  0  0  0  0  0  0  0  0
    3.1516    0.7724    1.2230 C   0  0  0  0  0  0  0  0  0  0  0  0
    2.3720    1.8050    1.7441 C   0  0  0  0  0  0  0  0  0  0  0  0
    2.8508    3.1147    1.7372 C   0  0  0  0  0  0  0  0  0  0  0  0
    4.1307    3.3888    1.2609 C   0  0  0  0  0  0  0  0  0  0  0  0
    4.9661    2.3482    0.8353 C   0  0  0  0  0  0  0  0  0  0  0  0
    6.4202    2.6188    0.5067 C   0  0  0  0  0  0  0  0  0  0  0  0
    7.2029    3.2122    1.7097 C   0  0  3  0  0  0  0  0  0  0  0  0
    7.1806    2.3280    2.8747 N   0  0  0  0  0  0  0  0  0  0  0  0
    7.1446    2.8366    4.1510 C   0  0  0  0  0  0  0  0  0  0  0  0
    7.0516    4.0313    4.4074 O   0  0  0  0  0  0  0  0  0  0  0  0
    7.1902    1.8476    5.0986 N   0  0  0  0  0  0  0  0  0  0  0  0
    7.0980    2.1365    6.5260 C   0  0  0  0  0  0  0  0  0  0  0  0
    5.7708    1.6459    7.1214 C   0  0  0  0  0  0  0  0  0  0  0  0
    5.5176    2.0128    8.5338 N   0  0  0  0  0  0  0  0  0  0  0  0
    4.2591    1.5461    8.9519 N   0  0  0  0  0  0  0  0  0  0  0  0
    3.2792    2.4044    8.8928 C   0  0  0  0  0  0  0  0  0  0  0  0
    3.4655    3.7702    8.3996 C   0  0  0  0  0  0  0  0  0  0  0  0
    2.4477    4.4684    7.7597 C   0  0  0  0  0  0  0  0  0  0  0  0
    2.7421    5.7153    7.2030 C   0  0  0  0  0  0  0  0  0  0  0  0
    4.0199    6.2758    7.3430 C   0  0  0  0  0  0  0  0  0  0  0  0
    5.0293    5.5699    7.9897 C   0  0  0  0  0  0  0  0  0  0  0  0
    4.7492    4.2937    8.4748 C   0  0  0  0  0  0  0  0  0  0  0  0
    5.8324    3.3582    8.8326 C   0  0  0  0  0  0  0  0  0  0  0  0
    6.9393    3.7581    9.1577 O   0  0  0  0  0  0  0  0  0  0  0  0
    8.6404    3.5501    1.3434 C   0  0  0  0  0  0  0  0  0  0  0  0
    9.1008    4.8697    1.4843 C   0  0  0  0  0  0  0  0  0  0  0  0
   10.4247    5.1995    1.1908 C   0  0  0  0  0  0  0  0  0  0  0  0
   11.3081    4.2138    0.7583 C   0  0  0  0  0  0  0  0  0  0  0  0
   10.8678    2.8995    0.6151 C   0  0  0  0  0  0  0  0  0  0  0  0
    9.5426    2.5681    0.9044 C   0  0  0  0  0  0  0  0  0  0  0  0
    4.4500    1.0446    0.7831 C   0  0  0  0  0  0  0  0  0  0  0  0
    1.1840   -1.8165    0.9004 H   0  0  0  0  0  0  0  0  0  0  0  0
    0.8972   -0.1835    0.2811 H   0  0  0  0  0  0  0  0  0  0  0  0
    0.8834   -0.5179    2.0554 H   0  0  0  0  0  0  0  0  0  0  0  0
    1.3945    1.6203    2.1754 H   0  0  0  0  0  0  0  0  0  0  0  0
    2.2357    3.9201    2.1278 H   0  0  0  0  0  0  0  0  0  0  0  0
    4.4856    4.4170    1.2690 H   0  0  0  0  0  0  0  0  0  0  0  0
    6.4613    3.3081   -0.3477 H   0  0  0  0  0  0  0  0  0  0  0  0
    6.8934    1.6872    0.1686 H   0  0  0  0  0  0  0  0  0  0  0  0
    6.7042    4.1458    1.9995 H   0  0  0  0  0  0  0  0  0  0  0  0
    7.5616    1.4059    2.7613 H   0  0  0  0  0  0  0  0  0  0  0  0
    7.2029    0.8869    4.7993 H   0  0  0  0  0  0  0  0  0  0  0  0
    7.2123    3.2152    6.6669 H   0  0  0  0  0  0  0  0  0  0  0  0
    7.9388    1.6429    7.0215 H   0  0  0  0  0  0  0  0  0  0  0  0
    5.7039    0.5552    7.0522 H   0  0  0  0  0  0  0  0  0  0  0  0
    4.9473    2.0580    6.5215 H   0  0  0  0  0  0  0  0  0  0  0  0
    2.2688    2.0891    9.2011 H   0  0  0  0  0  0  0  0  0  0  0  0
    1.4674    4.0224    7.6184 H   0  0  0  0  0  0  0  0  0  0  0  0
    1.9858    6.2417    6.6212 H   0  0  0  0  0  0  0  0  0  0  0  0
    4.2447    7.2385    6.8920 H   0  0  0  0  0  0  0  0  0  0  0  0
    6.0443    5.9649    8.0374 H   0  0  0  0  0  0  0  0  0  0  0  0
    8.4318    5.6492    1.8461 H   0  0  0  0  0  0  0  0  0  0  0  0
   10.7682    6.2229    1.3150 H   0  0  0  0  0  0  0  0  0  0  0  0
   12.3423    4.4687    0.5432 H   0  0  0  0  0  0  0  0  0  0  0  0
   11.5612    2.1295    0.2876 H   0  0  0  0  0  0  0  0  0  0  0  0
    9.2271    1.5338    0.7981 H   0  0  0  0  0  0  0  0  0  0  0  0
    5.0611    0.2252    0.4120 H   0  0  0  0  0  0  0  0  0  0  0  0
  1  2  1  0  0  0  0
  1 34  1  0  0  0  0
  1 35  1  0  0  0  0
  1 36  1  0  0  0  0
  2  3  1  0  0  0  0
  3  4  2  0  0  0  0
  3 33  1  0  0  0  0
  4  5  1  0  0  0  0
  4 37  1  0  0  0  0
  5  6  2  0  0  0  0
  5 38  1  0  0  0  0
  6  7  1  0  0  0  0
  6 39  1  0  0  0  0
  7  8  1  0  0  0  0
  7 33  2  0  0  0  0
  8  9  1  0  0  0  0
  8 40  1  0  0  0  0
  8 41  1  0  0  0  0
  9 10  1  0  0  0  0
  9 27  1  0  0  0  0
  9 42  1  0  0  0  0
 10 11  1  0  0  0  0
 10 43  1  0  0  0  0
 11 12  2  0  0  0  0
 11 13  1  0  0  0  0
 13 14  1  0  0  0  0
 13 44  1  0  0  0  0
 14 15  1  0  0  0  0
 14 45  1  0  0  0  0
 14 46  1  0  0  0  0
 15 16  1  0  0  0  0
 15 47  1  0  0  0  0
 15 48  1  0  0  0  0
 16 17  1  0  0  0  0
 16 25  1  0  0  0  0
 17 18  2  0  0  0  0
 18 19  1  0  0  0  0
 18 49  1  0  0  0  0
 19 20  2  0  0  0  0
 19 24  1  0  0  0  0
 20 21  1  0  0  0  0
 20 50  1  0  0  0  0
 21 22  2  0  0  0  0
 21 51  1  0  0  0  0
 22 23  1  0  0  0  0
 22 52  1  0  0  0  0
 23 24  2  0  0  0  0
 23 53  1  0  0  0  0
 24 25  1  0  0  0  0
 25 26  2  0  0  0  0
 27 28  2  0  0  0  0
 27 32  1  0  0  0  0
 28 29  1  0  0  0  0
 28 54  1  0  0  0  0
 29 30  2  0  0  0  0
 29 55  1  0  0  0  0
 30 31  1  0  0  0  0
 30 56  1  0  0  0  0
 31 32  2  0  0  0  0
 31 57  1  0  0  0  0
 32 58  1  0  0  0  0
 33 59  1  0  0  0  0
M  END
$$$$
