
 OpenBabel01122422363D

 40 43  0  0  0  0  0  0  0  0999 V2000
    0.9288    0.1404   -0.0696 O   0  0  0  0  0  0  0  0  0  0  0  0
    2.1548    0.0528   -0.0893 C   0  0  0  0  0  0  0  0  0  0  0  0
    2.8947    1.3255   -0.1114 C   0  0  0  0  0  0  0  0  0  0  0  0
    4.2863    1.3290   -0.1746 C   0  0  0  0  0  0  0  0  0  0  0  0
    4.9417    2.5609   -0.3181 C   0  0  0  0  0  0  0  0  0  0  0  0
    4.2242    3.7535   -0.2352 C   0  0  0  0  0  0  0  0  0  0  0  0
    4.8872    4.9167   -0.2688 F   0  0  0  0  0  0  0  0  0  0  0  0
    2.8468    3.7400   -0.0983 C   0  0  0  0  0  0  0  0  0  0  0  0
    2.1624    4.8860    0.0010 F   0  0  0  0  0  0  0  0  0  0  0  0
    2.1704    2.5320   -0.0730 C   0  0  0  0  0  0  0  0  0  0  0  0
    4.9712    0.0094   -0.0575 C   0  0  0  0  0  0  0  0  0  0  0  0
    6.4719   -0.1022    0.0150 C   0  0  0  0  0  0  0  0  0  0  0  0
    7.2622    0.8225    0.7114 C   0  0  0  0  0  0  0  0  0  0  0  0
    8.6570    0.7387    0.6771 C   0  0  0  0  0  0  0  0  0  0  0  0
    9.2745   -0.3237    0.0229 C   0  0  0  0  0  0  0  0  0  0  0  0
    8.4981   -1.3032   -0.5933 C   0  0  0  0  0  0  0  0  0  0  0  0
    7.1042   -1.1919   -0.6040 C   0  0  0  0  0  0  0  0  0  0  0  0
    4.3027   -1.1066   -0.0000 N   0  0  0  0  0  0  0  0  0  0  0  0
    2.9243   -1.1085   -0.0429 N   0  0  0  0  0  0  0  0  0  0  0  0
    2.2847   -2.3945    0.0084 C   0  0  0  0  0  0  0  0  0  0  0  0
    2.9188   -3.5047    0.5822 C   0  0  0  0  0  0  0  0  0  0  0  0
    4.1529   -3.4291    1.0996 F   0  0  0  0  0  0  0  0  0  0  0  0
    2.2227   -4.7154    0.7101 C   0  0  0  0  0  0  0  0  0  0  0  0
    2.8379   -5.8952    1.4001 C   0  0  0  0  0  0  0  0  0  0  0  0
    2.0032   -6.3330    2.4685 O   0  0  0  0  0  0  0  0  0  0  0  0
    0.9231   -4.8037    0.2046 C   0  0  0  0  0  0  0  0  0  0  0  0
    0.3722   -3.6833   -0.3801 C   0  0  0  0  0  0  0  0  0  0  0  0
    1.0183   -2.5043   -0.4784 N   0  0  0  0  0  0  0  0  0  0  0  0
    6.0091    2.6476   -0.4811 H   0  0  0  0  0  0  0  0  0  0  0  0
    1.0857    2.5334   -0.0022 H   0  0  0  0  0  0  0  0  0  0  0  0
    6.8185    1.6240    1.2946 H   0  0  0  0  0  0  0  0  0  0  0  0
    9.2596    1.4983    1.1692 H   0  0  0  0  0  0  0  0  0  0  0  0
   10.3592   -0.3979    0.0077 H   0  0  0  0  0  0  0  0  0  0  0  0
    8.9776   -2.1582   -1.0650 H   0  0  0  0  0  0  0  0  0  0  0  0
    6.5131   -1.9636   -1.0943 H   0  0  0  0  0  0  0  0  0  0  0  0
    3.8220   -5.6550    1.8180 H   0  0  0  0  0  0  0  0  0  0  0  0
    2.9587   -6.7242    0.6952 H   0  0  0  0  0  0  0  0  0  0  0  0
    1.6574   -5.5392    2.9115 H   0  0  0  0  0  0  0  0  0  0  0  0
    0.3479   -5.7222    0.2820 H   0  0  0  0  0  0  0  0  0  0  0  0
   -0.6362   -3.6937   -0.7848 H   0  0  0  0  0  0  0  0  0  0  0  0
  1  2  2  0  0  0  0
  2  3  1  0  0  0  0
  2 19  1  0  0  0  0
  3  4  2  0  0  0  0
  3 10  1  0  0  0  0
  4  5  1  0  0  0  0
  4 11  1  0  0  0  0
  5  6  2  0  0  0  0
  5 29  1  0  0  0  0
  6  7  1  0  0  0  0
  6  8  1  0  0  0  0
  8  9  1  0  0  0  0
  8 10  2  0  0  0  0
 10 30  1  0  0  0  0
 11 12  1  0  0  0  0
 11 18  2  0  0  0  0
 12 13  2  0  0  0  0
 12 17  1  0  0  0  0
 13 14  1  0  0  0  0
 13 31  1  0  0  0  0
 14 15  2  0  0  0  0
 14 32  1  0  0  0  0
 15 16  1  0  0  0  0
 15 33  1  0  0  0  0
 16 17  2  0  0  0  0
 16 34  1  0  0  0  0
 17 35  1  0  0  0  0
 18 19  1  0  0  0  0
 19 20  1  0  0  0  0
 20 21  2  0  0  0  0
 20 28  1  0  0  0  0
 21 22  1  0  0  0  0
 21 23  1  0  0  0  0
 23 24  1  0  0  0  0
 23 26  2  0  0  0  0
 24 25  1  0  0  0  0
 24 36  1  0  0  0  0
 24 37  1  0  0  0  0
 25 38  1  0  0  0  0
 26 27  1  0  0  0  0
 26 39  1  0  0  0  0
 27 28  2  0  0  0  0
 27 40  1  0  0  0  0
M  END
$$$$
