
 OpenBabel01122422363D

 46 49  0  0  0  0  0  0  0  0999 V2000
    1.8824   -1.6386    1.5065 O   0  0  0  0  0  0  0  0  0  0  0  0
    2.6157   -0.9249    0.8308 C   0  0  0  0  0  0  0  0  0  0  0  0
    2.8566    0.3982    1.1232 N   0  0  0  0  0  0  0  0  0  0  0  0
    2.1745    1.0835    2.1940 C   0  0  0  0  0  0  0  0  0  0  0  0
    3.1278    1.6431    3.2198 C   0  0  0  0  0  0  0  0  0  0  0  0
    3.1455    3.0157    3.5048 C   0  0  0  0  0  0  0  0  0  0  0  0
    3.9552    3.5211    4.5276 C   0  0  0  0  0  0  0  0  0  0  0  0
    4.7597    2.6618    5.2842 C   0  0  0  0  0  0  0  0  0  0  0  0
    5.5855    3.1908    6.3830 C   0  0  0  0  0  0  0  0  0  0  0  0
    5.0544    3.2498    7.6175 C   0  0  0  0  0  0  0  0  0  0  0  0
    5.7822    3.7418    8.6772 N   0  0  0  0  0  0  0  0  0  0  0  0
    7.0739    4.1978    8.5751 C   0  0  0  0  0  0  0  0  0  0  0  0
    7.7048    4.6313    9.5313 O   0  0  0  0  0  0  0  0  0  0  0  0
    7.6734    4.1343    7.2184 C   0  0  0  0  0  0  0  0  0  0  0  0
    6.9520    3.6542    6.1949 C   0  0  0  0  0  0  0  0  0  0  0  0
    4.7647    1.2944    4.9877 C   0  0  0  0  0  0  0  0  0  0  0  0
    3.9545    0.7896    3.9652 C   0  0  0  0  0  0  0  0  0  0  0  0
    3.2740   -1.4318   -0.3518 C   0  0  0  0  0  0  0  0  0  0  0  0
    4.1350   -0.7850   -1.2024 C   0  0  0  0  0  0  0  0  0  0  0  0
    4.5290    0.4529   -1.0538 F   0  0  0  0  0  0  0  0  0  0  0  0
    4.4982   -1.6589   -2.2048 N   0  0  0  0  0  0  0  0  0  0  0  0
    5.3842   -1.4202   -3.2909 C   0  0  0  0  0  0  0  0  0  0  0  0
    6.0026   -0.1719   -3.4502 C   0  0  0  0  0  0  0  0  0  0  0  0
    6.9122    0.0362   -4.4876 C   0  0  0  0  0  0  0  0  0  0  0  0
    7.2021   -0.9929   -5.3788 C   0  0  0  0  0  0  0  0  0  0  0  0
    6.5726   -2.2296   -5.2443 C   0  0  0  0  0  0  0  0  0  0  0  0
    5.6640   -2.4469   -4.2048 C   0  0  0  0  0  0  0  0  0  0  0  0
    3.8980   -2.8703   -2.0286 N   0  0  0  0  0  0  0  0  0  0  0  0
    3.1747   -2.7213   -0.9139 C   0  0  0  0  0  0  0  0  0  0  0  0
    3.4582    0.9418    0.5178 H   0  0  0  0  0  0  0  0  0  0  0  0
    1.4574    0.4236    2.6928 H   0  0  0  0  0  0  0  0  0  0  0  0
    1.5996    1.8893    1.7239 H   0  0  0  0  0  0  0  0  0  0  0  0
    2.5115    3.7032    2.9486 H   0  0  0  0  0  0  0  0  0  0  0  0
    3.9392    4.5876    4.7423 H   0  0  0  0  0  0  0  0  0  0  0  0
    4.0427    2.9275    7.8449 H   0  0  0  0  0  0  0  0  0  0  0  0
    5.3710    3.7822    9.6013 H   0  0  0  0  0  0  0  0  0  0  0  0
    8.6905    4.4869    7.1143 H   0  0  0  0  0  0  0  0  0  0  0  0
    7.3777    3.6027    5.1971 H   0  0  0  0  0  0  0  0  0  0  0  0
    5.3842    0.6097    5.5632 H   0  0  0  0  0  0  0  0  0  0  0  0
    3.9523   -0.2813    3.7679 H   0  0  0  0  0  0  0  0  0  0  0  0
    5.8094    0.6624   -2.7845 H   0  0  0  0  0  0  0  0  0  0  0  0
    7.3980    1.0031   -4.5924 H   0  0  0  0  0  0  0  0  0  0  0  0
    7.9198   -0.8298   -6.1785 H   0  0  0  0  0  0  0  0  0  0  0  0
    6.7955   -3.0297   -5.9459 H   0  0  0  0  0  0  0  0  0  0  0  0
    5.1914   -3.4240   -4.1169 H   0  0  0  0  0  0  0  0  0  0  0  0
    2.5930   -3.5607   -0.5486 H   0  0  0  0  0  0  0  0  0  0  0  0
  1  2  2  0  0  0  0
  2  3  1  0  0  0  0
  2 18  1  0  0  0  0
  3  4  1  0  0  0  0
  3 30  1  0  0  0  0
  4  5  1  0  0  0  0
  4 31  1  0  0  0  0
  4 32  1  0  0  0  0
  5  6  2  0  0  0  0
  5 17  1  0  0  0  0
  6  7  1  0  0  0  0
  6 33  1  0  0  0  0
  7  8  2  0  0  0  0
  7 34  1  0  0  0  0
  8  9  1  0  0  0  0
  8 16  1  0  0  0  0
  9 10  2  0  0  0  0
  9 15  1  0  0  0  0
 10 11  1  0  0  0  0
 10 35  1  0  0  0  0
 11 12  1  0  0  0  0
 11 36  1  0  0  0  0
 12 13  2  0  0  0  0
 12 14  1  0  0  0  0
 14 15  2  0  0  0  0
 14 37  1  0  0  0  0
 15 38  1  0  0  0  0
 16 17  2  0  0  0  0
 16 39  1  0  0  0  0
 17 40  1  0  0  0  0
 18 19  2  0  0  0  0
 18 29  1  0  0  0  0
 19 20  1  0  0  0  0
 19 21  1  0  0  0  0
 21 22  1  0  0  0  0
 21 28  1  0  0  0  0
 22 23  2  0  0  0  0
 22 27  1  0  0  0  0
 23 24  1  0  0  0  0
 23 41  1  0  0  0  0
 24 25  2  0  0  0  0
 24 42  1  0  0  0  0
 25 26  1  0  0  0  0
 25 43  1  0  0  0  0
 26 27  2  0  0  0  0
 26 44  1  0  0  0  0
 27 45  1  0  0  0  0
 28 29  2  0  0  0  0
 29 46  1  0  0  0  0
M  END
$$$$
