
 OpenBabel01122422363D

 47 50  0  0  0  0  0  0  0  0999 V2000
    7.2163    2.8661   -0.8256 C   0  0  0  0  0  0  0  0  0  0  0  0
    6.3065    2.0364   -1.5434 O   0  0  0  0  0  0  0  0  0  0  0  0
    4.9853    2.1304   -1.1770 C   0  0  0  0  0  0  0  0  0  0  0  0
    4.4275    3.3543   -0.7655 C   0  0  0  0  0  0  0  0  0  0  0  0
    3.0699    3.4527   -0.4735 C   0  0  0  0  0  0  0  0  0  0  0  0
    2.2721    2.3293   -0.5928 C   0  0  0  0  0  0  0  0  0  0  0  0
    0.9630    2.4187   -0.3242 F   0  0  0  0  0  0  0  0  0  0  0  0
    2.8069    1.1089   -0.9949 C   0  0  0  0  0  0  0  0  0  0  0  0
    4.1763    0.9713   -1.3126 C   0  0  0  0  0  0  0  0  0  0  0  0
    4.6960   -0.3528   -1.7568 C   0  0  0  0  0  0  0  0  0  0  0  0
    5.9743   -0.8191   -1.4388 C   0  0  0  0  0  0  0  0  0  0  0  0
    6.4979   -2.0151   -1.8138 N   0  0  0  0  0  0  0  0  0  0  0  0
    5.6974   -2.8265   -2.5319 C   0  0  0  0  0  0  0  0  0  0  0  0
    4.3996   -2.5014   -2.8958 C   0  0  0  0  0  0  0  0  0  0  0  0
    3.5604   -3.4657   -3.6815 C   0  0  0  0  0  0  0  0  0  0  0  0
    3.4276   -4.6737   -2.9311 O   0  0  0  0  0  0  0  0  0  0  0  0
    2.7077   -5.6771   -3.5172 C   0  0  0  0  0  0  0  0  0  0  0  0
    2.0833   -5.6091   -4.7578 C   0  0  0  0  0  0  0  0  0  0  0  0
    1.3845   -6.7124   -5.2599 C   0  0  0  0  0  0  0  0  0  0  0  0
    1.2853   -7.9049   -4.5335 C   0  0  0  0  0  0  0  0  0  0  0  0
    0.5818   -9.0236   -5.0515 N   0  0  0  0  0  0  0  0  0  0  0  0
    0.1694  -10.1575   -4.3651 C   0  0  0  0  0  0  0  0  0  0  0  0
   -0.4453  -10.9975   -5.2066 C   0  0  0  0  0  0  0  0  0  0  0  0
   -0.4476  -10.4426   -6.4532 N   0  0  0  0  0  0  0  0  0  0  0  0
    0.1892   -9.1878   -6.4219 C   0  0  0  0  0  0  0  0  0  0  0  0
    0.3501   -8.4762   -7.3979 O   0  0  0  0  0  0  0  0  0  0  0  0
    1.9004   -7.9542   -3.2752 C   0  0  0  0  0  0  0  0  0  0  0  0
    2.6119   -6.8541   -2.7773 C   0  0  0  0  0  0  0  0  0  0  0  0
    3.9135   -1.2428   -2.5133 C   0  0  0  0  0  0  0  0  0  0  0  0
    8.2293    2.5101   -1.0368 H   0  0  0  0  0  0  0  0  0  0  0  0
    7.0560    2.7969    0.2562 H   0  0  0  0  0  0  0  0  0  0  0  0
    7.1541    3.9034   -1.1681 H   0  0  0  0  0  0  0  0  0  0  0  0
    5.0285    4.2550   -0.6950 H   0  0  0  0  0  0  0  0  0  0  0  0
    2.6314    4.3965   -0.1667 H   0  0  0  0  0  0  0  0  0  0  0  0
    2.1264    0.2634   -1.0484 H   0  0  0  0  0  0  0  0  0  0  0  0
    6.6565   -0.2313   -0.8314 H   0  0  0  0  0  0  0  0  0  0  0  0
    6.1408   -3.7787   -2.8133 H   0  0  0  0  0  0  0  0  0  0  0  0
    4.0550   -3.6551   -4.6424 H   0  0  0  0  0  0  0  0  0  0  0  0
    2.5685   -3.0321   -3.8586 H   0  0  0  0  0  0  0  0  0  0  0  0
    2.1109   -4.7173   -5.3739 H   0  0  0  0  0  0  0  0  0  0  0  0
    0.9030   -6.5947   -6.2260 H   0  0  0  0  0  0  0  0  0  0  0  0
    0.3193  -10.2907   -3.3058 H   0  0  0  0  0  0  0  0  0  0  0  0
   -0.8930  -11.9577   -5.0056 H   0  0  0  0  0  0  0  0  0  0  0  0
   -0.8234  -10.8394   -7.3007 H   0  0  0  0  0  0  0  0  0  0  0  0
    1.8784   -8.8540   -2.6681 H   0  0  0  0  0  0  0  0  0  0  0  0
    3.1017   -6.9241   -1.8085 H   0  0  0  0  0  0  0  0  0  0  0  0
    2.9064   -0.9627   -2.8136 H   0  0  0  0  0  0  0  0  0  0  0  0
  1  2  1  0  0  0  0
  1 30  1  0  0  0  0
  1 31  1  0  0  0  0
  1 32  1  0  0  0  0
  2  3  1  0  0  0  0
  3  4  2  0  0  0  0
  3  9  1  0  0  0  0
  4  5  1  0  0  0  0
  4 33  1  0  0  0  0
  5  6  2  0  0  0  0
  5 34  1  0  0  0  0
  6  7  1  0  0  0  0
  6  8  1  0  0  0  0
  8  9  2  0  0  0  0
  8 35  1  0  0  0  0
  9 10  1  0  0  0  0
 10 11  2  0  0  0  0
 10 29  1  0  0  0  0
 11 12  1  0  0  0  0
 11 36  1  0  0  0  0
 12 13  2  0  0  0  0
 13 14  1  0  0  0  0
 13 37  1  0  0  0  0
 14 15  1  0  0  0  0
 14 29  2  0  0  0  0
 15 16  1  0  0  0  0
 15 38  1  0  0  0  0
 15 39  1  0  0  0  0
 16 17  1  0  0  0  0
 17 18  2  0  0  0  0
 17 28  1  0  0  0  0
 18 19  1  0  0  0  0
 18 40  1  0  0  0  0
 19 20  2  0  0  0  0
 19 41  1  0  0  0  0
 20 21  1  0  0  0  0
 20 27  1  0  0  0  0
 21 22  1  0  0  0  0
 21 25  1  0  0  0  0
 22 23  2  0  0  0  0
 22 42  1  0  0  0  0
 23 24  1  0  0  0  0
 23 43  1  0  0  0  0
 24 25  1  0  0  0  0
 24 44  1  0  0  0  0
 25 26  2  0  0  0  0
 27 28  2  0  0  0  0
 27 45  1  0  0  0  0
 28 46  1  0  0  0  0
 29 47  1  0  0  0  0
M  END
$$$$
