
 OpenBabel01122422363D

 44 47  0  0  0  0  0  0  0  0999 V2000
    1.1021   -0.1710   -0.2538 O   0  0  0  0  0  0  0  0  0  0  0  0
    2.3158   -0.1233   -0.0844 C   0  0  0  0  0  0  0  0  0  0  0  0
    2.9805    1.1971    0.2703 C   0  0  0  0  0  0  0  0  0  0  0  0
    3.0346    1.5472    1.7406 C   0  0  0  0  0  0  0  0  0  0  0  0
    4.0666    2.3805    2.1990 C   0  0  0  0  0  0  0  0  0  0  0  0
    4.1292    2.7896    3.5359 C   0  0  0  0  0  0  0  0  0  0  0  0
    3.1516    2.3719    4.4456 C   0  0  0  0  0  0  0  0  0  0  0  0
    3.2222    2.7389    5.8195 N   0  0  0  0  0  0  0  0  0  0  0  0
    4.1512    3.5572    6.4331 C   0  0  0  0  0  0  0  0  0  0  0  0
    3.8864    3.5366    7.7815 C   0  0  0  0  0  0  0  0  0  0  0  0
    2.7618    2.7109    7.9031 C   0  0  0  0  0  0  0  0  0  0  0  0
    2.3360    2.2484    6.7273 N   0  0  0  0  0  0  0  0  0  0  0  0
    2.1005    1.5633    3.9910 C   0  0  0  0  0  0  0  0  0  0  0  0
    2.0382    1.1656    2.6480 C   0  0  0  0  0  0  0  0  0  0  0  0
    3.1862   -1.1844   -0.1749 N   0  0  0  0  0  0  0  0  0  0  0  0
    2.8375   -2.4590   -0.6042 C   0  0  0  0  0  0  0  0  0  0  0  0
    3.7372   -3.4143   -0.3260 N   0  0  0  0  0  0  0  0  0  0  0  0
    3.4250   -4.6890   -0.6704 C   0  0  0  0  0  0  0  0  0  0  0  0
    4.3944   -5.7195   -0.2440 C   0  0  0  0  0  0  0  0  0  0  0  0
    5.1549   -5.5423    0.9271 C   0  0  0  0  0  0  0  0  0  0  0  0
    6.0572   -6.5147    1.3533 C   0  0  0  0  0  0  0  0  0  0  0  0
    6.7575   -6.3137    2.4768 F   0  0  0  0  0  0  0  0  0  0  0  0
    6.2372   -7.6873    0.6390 C   0  0  0  0  0  0  0  0  0  0  0  0
    5.4978   -7.8755   -0.5165 C   0  0  0  0  0  0  0  0  0  0  0  0
    5.6529   -9.0034   -1.2218 F   0  0  0  0  0  0  0  0  0  0  0  0
    4.5888   -6.9141   -0.9617 C   0  0  0  0  0  0  0  0  0  0  0  0
    2.2517   -5.0009   -1.3321 C   0  0  0  0  0  0  0  0  0  0  0  0
    1.4203   -3.9440   -1.6081 C   0  0  0  0  0  0  0  0  0  0  0  0
    1.6938   -2.6788   -1.2562 N   0  0  0  0  0  0  0  0  0  0  0  0
    2.4261    1.9873   -0.2514 H   0  0  0  0  0  0  0  0  0  0  0  0
    3.9935    1.1970   -0.1546 H   0  0  0  0  0  0  0  0  0  0  0  0
    4.8355    2.7307    1.5120 H   0  0  0  0  0  0  0  0  0  0  0  0
    4.9563    3.4275    3.8300 H   0  0  0  0  0  0  0  0  0  0  0  0
    4.9205    4.0704    5.8787 H   0  0  0  0  0  0  0  0  0  0  0  0
    4.4322    4.0470    8.5620 H   0  0  0  0  0  0  0  0  0  0  0  0
    2.2303    2.4261    8.8023 H   0  0  0  0  0  0  0  0  0  0  0  0
    1.3104    1.2418    4.6688 H   0  0  0  0  0  0  0  0  0  0  0  0
    1.1896    0.5618    2.3272 H   0  0  0  0  0  0  0  0  0  0  0  0
    4.1169   -1.1224    0.2074 H   0  0  0  0  0  0  0  0  0  0  0  0
    5.0413   -4.6439    1.5301 H   0  0  0  0  0  0  0  0  0  0  0  0
    6.9392   -8.4393    0.9774 H   0  0  0  0  0  0  0  0  0  0  0  0
    4.0497   -7.1186   -1.8828 H   0  0  0  0  0  0  0  0  0  0  0  0
    1.9690   -6.0086   -1.5973 H   0  0  0  0  0  0  0  0  0  0  0  0
    0.4741   -4.0874   -2.1215 H   0  0  0  0  0  0  0  0  0  0  0  0
  1  2  2  0  0  0  0
  2  3  1  0  0  0  0
  2 15  1  0  0  0  0
  3  4  1  0  0  0  0
  3 30  1  0  0  0  0
  3 31  1  0  0  0  0
  4  5  2  0  0  0  0
  4 14  1  0  0  0  0
  5  6  1  0  0  0  0
  5 32  1  0  0  0  0
  6  7  2  0  0  0  0
  6 33  1  0  0  0  0
  7  8  1  0  0  0  0
  7 13  1  0  0  0  0
  8  9  1  0  0  0  0
  8 12  1  0  0  0  0
  9 10  2  0  0  0  0
  9 34  1  0  0  0  0
 10 11  1  0  0  0  0
 10 35  1  0  0  0  0
 11 12  2  0  0  0  0
 11 36  1  0  0  0  0
 13 14  2  0  0  0  0
 13 37  1  0  0  0  0
 14 38  1  0  0  0  0
 15 16  1  0  0  0  0
 15 39  1  0  0  0  0
 16 17  2  0  0  0  0
 16 29  1  0  0  0  0
 17 18  1  0  0  0  0
 18 19  1  0  0  0  0
 18 27  2  0  0  0  0
 19 20  2  0  0  0  0
 19 26  1  0  0  0  0
 20 21  1  0  0  0  0
 20 40  1  0  0  0  0
 21 22  1  0  0  0  0
 21 23  2  0  0  0  0
 23 24  1  0  0  0  0
 23 41  1  0  0  0  0
 24 25  1  0  0  0  0
 24 26  2  0  0  0  0
 26 42  1  0  0  0  0
 27 28  1  0  0  0  0
 27 43  1  0  0  0  0
 28 29  2  0  0  0  0
 28 44  1  0  0  0  0
M  END
$$$$
