
 OpenBabel01122422363D

 46 49  0  0  0  0  0  0  0  0999 V2000
    5.3455   -1.4990    1.3430 C   0  0  0  0  0  0  0  0  0  0  0  0
    4.3602   -0.6204    0.6352 C   0  0  0  0  0  0  0  0  0  0  0  0
    4.7575    0.6433    0.1880 C   0  0  0  0  0  0  0  0  0  0  0  0
    3.8477    1.4381   -0.4861 C   0  0  0  0  0  0  0  0  0  0  0  0
    2.5885    1.0330   -0.7433 N   0  0  0  0  0  0  0  0  0  0  0  0
    2.1827   -0.1972   -0.3129 N   0  0  0  0  0  0  0  0  0  0  0  0
    3.0431   -0.9985    0.3724 C   0  0  0  0  0  0  0  0  0  0  0  0
    2.4587   -2.3293    0.7809 C   0  0  0  0  0  0  0  0  0  0  0  0
    3.0568   -3.0674    1.5364 O   0  0  0  0  0  0  0  0  0  0  0  0
    1.2280   -2.5871    0.1832 N   0  0  0  0  0  0  0  0  0  0  0  0
    0.4631   -3.7708    0.2738 C   0  0  0  0  0  0  0  0  0  0  0  0
    0.7170   -4.7634    1.2298 C   0  0  0  0  0  0  0  0  0  0  0  0
   -0.0608   -5.9190    1.2663 C   0  0  0  0  0  0  0  0  0  0  0  0
   -1.0999   -6.0885    0.3474 C   0  0  0  0  0  0  0  0  0  0  0  0
   -1.3827   -5.1076   -0.6078 C   0  0  0  0  0  0  0  0  0  0  0  0
   -2.4089   -5.2394   -1.5730 N   0  0  0  0  0  0  0  0  0  0  0  0
   -3.4176   -6.1916   -1.5802 C   0  0  0  0  0  0  0  0  0  0  0  0
   -3.6485   -7.0081   -0.6935 O   0  0  0  0  0  0  0  0  0  0  0  0
   -4.2533   -6.2209   -2.8301 C   0  0  0  0  0  0  0  0  0  0  0  0
   -5.2474   -7.1886   -2.9255 C   0  0  0  0  0  0  0  0  0  0  0  0
   -5.6709   -7.5721   -4.1980 C   0  0  0  0  0  0  0  0  0  0  0  0
   -6.5097   -8.6749   -4.3553 C   0  0  0  0  0  0  0  0  0  0  0  0
   -6.4422   -9.3776   -5.5457 C   0  0  0  0  0  0  0  0  0  0  0  0
   -6.9109  -10.6313   -5.5883 F   0  0  0  0  0  0  0  0  0  0  0  0
   -5.8120   -8.8385   -6.6606 C   0  0  0  0  0  0  0  0  0  0  0  0
   -5.2574   -7.5586   -6.5846 C   0  0  0  0  0  0  0  0  0  0  0  0
   -5.1030   -6.9510   -5.3250 C   0  0  0  0  0  0  0  0  0  0  0  0
   -4.3032   -5.8247   -5.0976 C   0  0  0  0  0  0  0  0  0  0  0  0
   -3.8391   -5.4541   -3.8767 N   0  0  0  0  0  0  0  0  0  0  0  0
   -0.5917   -3.9506   -0.6361 C   0  0  0  0  0  0  0  0  0  0  0  0
    6.3354   -1.0320    1.3878 H   0  0  0  0  0  0  0  0  0  0  0  0
    5.4653   -2.4478    0.8110 H   0  0  0  0  0  0  0  0  0  0  0  0
    5.0254   -1.6838    2.3730 H   0  0  0  0  0  0  0  0  0  0  0  0
    5.7654    1.0094    0.3604 H   0  0  0  0  0  0  0  0  0  0  0  0
    4.1080    2.4260   -0.8497 H   0  0  0  0  0  0  0  0  0  0  0  0
    0.9092   -1.8818   -0.4848 H   0  0  0  0  0  0  0  0  0  0  0  0
    1.5111   -4.6650    1.9655 H   0  0  0  0  0  0  0  0  0  0  0  0
    0.1419   -6.6897    2.0061 H   0  0  0  0  0  0  0  0  0  0  0  0
   -1.6551   -7.0194    0.3892 H   0  0  0  0  0  0  0  0  0  0  0  0
   -2.4268   -4.5897   -2.3542 H   0  0  0  0  0  0  0  0  0  0  0  0
   -5.5300   -7.7708   -2.0528 H   0  0  0  0  0  0  0  0  0  0  0  0
   -7.1105   -9.0629   -3.5378 H   0  0  0  0  0  0  0  0  0  0  0  0
   -5.7380   -9.4282   -7.5691 H   0  0  0  0  0  0  0  0  0  0  0  0
   -4.8244   -7.1134   -7.4769 H   0  0  0  0  0  0  0  0  0  0  0  0
   -3.9290   -5.2275   -5.9256 H   0  0  0  0  0  0  0  0  0  0  0  0
   -0.7942   -3.1787   -1.3720 H   0  0  0  0  0  0  0  0  0  0  0  0
  1  2  1  0  0  0  0
  1 31  1  0  0  0  0
  1 32  1  0  0  0  0
  1 33  1  0  0  0  0
  2  3  2  0  0  0  0
  2  7  1  0  0  0  0
  3  4  1  0  0  0  0
  3 34  1  0  0  0  0
  4  5  2  0  0  0  0
  4 35  1  0  0  0  0
  5  6  1  0  0  0  0
  6  7  2  0  0  0  0
  7  8  1  0  0  0  0
  8  9  2  0  0  0  0
  8 10  1  0  0  0  0
 10 11  1  0  0  0  0
 10 36  1  0  0  0  0
 11 12  2  0  0  0  0
 11 30  1  0  0  0  0
 12 13  1  0  0  0  0
 12 37  1  0  0  0  0
 13 14  2  0  0  0  0
 13 38  1  0  0  0  0
 14 15  1  0  0  0  0
 14 39  1  0  0  0  0
 15 16  1  0  0  0  0
 15 30  2  0  0  0  0
 16 17  1  0  0  0  0
 16 40  1  0  0  0  0
 17 18  2  0  0  0  0
 17 19  1  0  0  0  0
 19 20  2  0  0  0  0
 19 29  1  0  0  0  0
 20 21  1  0  0  0  0
 20 41  1  0  0  0  0
 21 22  2  0  0  0  0
 21 27  1  0  0  0  0
 22 23  1  0  0  0  0
 22 42  1  0  0  0  0
 23 24  1  0  0  0  0
 23 25  2  0  0  0  0
 25 26  1  0  0  0  0
 25 43  1  0  0  0  0
 26 27  2  0  0  0  0
 26 44  1  0  0  0  0
 27 28  1  0  0  0  0
 28 29  2  0  0  0  0
 28 45  1  0  0  0  0
 30 46  1  0  0  0  0
M  END
$$$$
