
 OpenBabel01122422363D

 55 58  0  0  1  0  0  0  0  0999 V2000
    1.2892   -0.4440   -0.0621 C   0  0  0  0  0  0  0  0  0  0  0  0
    2.5434    0.1950   -0.2851 O   0  0  0  0  0  0  0  0  0  0  0  0
    3.1032    0.8237    0.7926 C   0  0  0  0  0  0  0  0  0  0  0  0
    2.5544    0.8770    2.0694 C   0  0  0  0  0  0  0  0  0  0  0  0
    3.2292    1.5418    3.1019 C   0  0  0  0  0  0  0  0  0  0  0  0
    4.4520    2.1682    2.8813 C   0  0  0  0  0  0  0  0  0  0  0  0
    5.1721    2.8540    3.8861 N   0  0  0  0  0  0  0  0  0  0  0  0
    4.7795    3.0198    5.2048 C   0  0  0  0  0  0  0  0  0  0  0  0
    3.7611    2.5347    5.7092 O   0  0  0  0  0  0  0  0  0  0  0  0
    5.7325    3.8607    6.0801 C   0  0  1  0  0  0  0  0  0  0  0  0
    5.9080    5.2691    5.5251 C   0  0  0  0  0  0  0  0  0  0  0  0
    5.1221    3.8719    7.4106 N   0  0  0  0  0  0  0  0  0  0  0  0
    5.7283    4.3876    8.5242 C   0  0  0  0  0  0  0  0  0  0  0  0
    6.8306    4.9235    8.4974 O   0  0  0  0  0  0  0  0  0  0  0  0
    4.9645    4.3011    9.7996 C   0  0  0  0  0  0  0  0  0  0  0  0
    4.0452    3.2852   10.0786 C   0  0  0  0  0  0  0  0  0  0  0  0
    3.3632    3.2682   11.3082 C   0  0  0  0  0  0  0  0  0  0  0  0
    3.5996    4.2403   12.3002 C   0  0  0  0  0  0  0  0  0  0  0  0
    2.8855    4.2292   13.6135 C   0  0  0  0  0  0  0  0  0  0  0  0
    2.6310    2.9896   14.2475 C   0  0  0  0  0  0  0  0  0  0  0  0
    2.0660    2.9069   15.5248 C   0  0  0  0  0  0  0  0  0  0  0  0
    1.7702    4.0647   16.2285 C   0  0  0  0  0  0  0  0  0  0  0  0
    1.9805    5.3028   15.6279 C   0  0  0  0  0  0  0  0  0  0  0  0
    2.4882    5.4020   14.3142 C   0  0  0  0  0  0  0  0  0  0  0  0
    2.5354    6.7360   13.7215 C   0  0  0  0  0  0  0  0  0  0  0  0
    2.8993    7.8522   14.3817 N   0  0  0  0  0  0  0  0  0  0  0  0
    2.8039    8.7523   13.3914 N   0  0  0  0  0  0  0  0  0  0  0  0
    2.3961    8.2863   12.2080 N   0  0  0  0  0  0  0  0  0  0  0  0
    2.1987    6.9922   12.4112 N   0  0  0  0  0  0  0  0  0  0  0  0
    4.5787    5.2094   12.0097 C   0  0  0  0  0  0  0  0  0  0  0  0
    5.2227    5.2656   10.7710 C   0  0  0  0  0  0  0  0  0  0  0  0
    5.0009    2.1209    1.5943 C   0  0  0  0  0  0  0  0  0  0  0  0
    4.3273    1.4492    0.5585 C   0  0  0  0  0  0  0  0  0  0  0  0
    1.0049   -0.9635   -0.9815 H   0  0  0  0  0  0  0  0  0  0  0  0
    0.5110    0.2941    0.1622 H   0  0  0  0  0  0  0  0  0  0  0  0
    1.3574   -1.1966    0.7316 H   0  0  0  0  0  0  0  0  0  0  0  0
    1.6043    0.4127    2.3120 H   0  0  0  0  0  0  0  0  0  0  0  0
    2.7441    1.5390    4.0704 H   0  0  0  0  0  0  0  0  0  0  0  0
    6.0564    3.2618    3.6025 H   0  0  0  0  0  0  0  0  0  0  0  0
    6.6978    3.3478    6.1551 H   0  0  0  0  0  0  0  0  0  0  0  0
    4.9438    5.7808    5.4343 H   0  0  0  0  0  0  0  0  0  0  0  0
    6.3742    5.2559    4.5350 H   0  0  0  0  0  0  0  0  0  0  0  0
    6.5454    5.8801    6.1726 H   0  0  0  0  0  0  0  0  0  0  0  0
    4.1899    3.4693    7.4643 H   0  0  0  0  0  0  0  0  0  0  0  0
    3.8558    2.4864    9.3667 H   0  0  0  0  0  0  0  0  0  0  0  0
    2.6407    2.4718   11.4780 H   0  0  0  0  0  0  0  0  0  0  0  0
    2.8946    2.0545   13.7565 H   0  0  0  0  0  0  0  0  0  0  0  0
    1.8786    1.9346   15.9744 H   0  0  0  0  0  0  0  0  0  0  0  0
    1.3649    4.0082   17.2354 H   0  0  0  0  0  0  0  0  0  0  0  0
    1.7285    6.2048   16.1844 H   0  0  0  0  0  0  0  0  0  0  0  0
    3.0285    9.7339   13.5263 H   0  0  0  0  0  0  0  0  0  0  0  0
    4.8523    5.9635   12.7441 H   0  0  0  0  0  0  0  0  0  0  0  0
    5.9257    6.0714   10.5711 H   0  0  0  0  0  0  0  0  0  0  0  0
    5.9499    2.5990    1.3647 H   0  0  0  0  0  0  0  0  0  0  0  0
    4.7632    1.4224   -0.4373 H   0  0  0  0  0  0  0  0  0  0  0  0
  1  2  1  0  0  0  0
  1 34  1  0  0  0  0
  1 35  1  0  0  0  0
  1 36  1  0  0  0  0
  2  3  1  0  0  0  0
  3  4  2  0  0  0  0
  3 33  1  0  0  0  0
  4  5  1  0  0  0  0
  4 37  1  0  0  0  0
  5  6  2  0  0  0  0
  5 38  1  0  0  0  0
  6  7  1  0  0  0  0
  6 32  1  0  0  0  0
  7  8  1  0  0  0  0
  7 39  1  0  0  0  0
  8  9  2  0  0  0  0
  8 10  1  0  0  0  0
 10 11  1  0  0  0  0
 10 12  1  0  0  0  0
 10 40  1  1  0  0  0
 11 41  1  0  0  0  0
 11 42  1  0  0  0  0
 11 43  1  0  0  0  0
 12 13  1  0  0  0  0
 12 44  1  0  0  0  0
 13 14  2  0  0  0  0
 13 15  1  0  0  0  0
 15 16  2  0  0  0  0
 15 31  1  0  0  0  0
 16 17  1  0  0  0  0
 16 45  1  0  0  0  0
 17 18  2  0  0  0  0
 17 46  1  0  0  0  0
 18 19  1  0  0  0  0
 18 30  1  0  0  0  0
 19 20  2  0  0  0  0
 19 24  1  0  0  0  0
 20 21  1  0  0  0  0
 20 47  1  0  0  0  0
 21 22  2  0  0  0  0
 21 48  1  0  0  0  0
 22 23  1  0  0  0  0
 22 49  1  0  0  0  0
 23 24  2  0  0  0  0
 23 50  1  0  0  0  0
 24 25  1  0  0  0  0
 25 26  2  0  0  0  0
 25 29  1  0  0  0  0
 26 27  1  0  0  0  0
 27 28  1  0  0  0  0
 27 51  1  0  0  0  0
 28 29  2  0  0  0  0
 30 31  2  0  0  0  0
 30 52  1  0  0  0  0
 31 53  1  0  0  0  0
 32 33  2  0  0  0  0
 32 54  1  0  0  0  0
 33 55  1  0  0  0  0
M  END
$$$$
