
 OpenBabel01122422363D

 42 45  0  0  0  0  0  0  0  0999 V2000
    2.2622   -2.0737    0.1702 N   0  0  0  0  0  0  0  0  0  0  0  0
    2.9851   -0.9245    0.1821 C   0  0  0  0  0  0  0  0  0  0  0  0
    4.3255   -0.7633   -0.0479 C   0  0  0  0  0  0  0  0  0  0  0  0
    4.5588    0.6318   -0.0213 C   0  0  0  0  0  0  0  0  0  0  0  0
    5.8766    1.2670   -0.1782 C   0  0  0  0  0  0  0  0  0  0  0  0
    6.8654    0.5867   -0.4380 O   0  0  0  0  0  0  0  0  0  0  0  0
    5.8782    2.6339    0.0593 N   0  0  0  0  0  0  0  0  0  0  0  0
    7.0122    3.4728    0.0386 C   0  0  0  0  0  0  0  0  0  0  0  0
    8.2253    3.0977   -0.5372 C   0  0  0  0  0  0  0  0  0  0  0  0
    9.3353    3.9412   -0.4874 C   0  0  0  0  0  0  0  0  0  0  0  0
   10.4773    3.4830   -1.0189 F   0  0  0  0  0  0  0  0  0  0  0  0
    9.2757    5.1702    0.1623 C   0  0  0  0  0  0  0  0  0  0  0  0
   10.4252    5.9885    0.2662 N   0  0  0  0  0  0  0  0  0  0  0  0
   11.5201    6.0053   -0.5730 C   0  0  0  0  0  0  0  0  0  0  0  0
   12.3829    6.9441   -0.0603 C   0  0  0  0  0  0  0  0  0  0  0  0
   11.8717    7.4995    1.0767 N   0  0  0  0  0  0  0  0  0  0  0  0
   10.7043    6.9166    1.2468 C   0  0  0  0  0  0  0  0  0  0  0  0
    8.0542    5.5598    0.7145 C   0  0  0  0  0  0  0  0  0  0  0  0
    7.9063    6.7570    1.2975 F   0  0  0  0  0  0  0  0  0  0  0  0
    6.9212    4.7353    0.6321 C   0  0  0  0  0  0  0  0  0  0  0  0
    3.4189    1.3228    0.1671 N   0  0  0  0  0  0  0  0  0  0  0  0
    2.4734    0.3585    0.3912 N   0  0  0  0  0  0  0  0  0  0  0  0
    1.1679    0.7246    0.8177 C   0  0  0  0  0  0  0  0  0  0  0  0
    0.6227    1.9482    0.4018 C   0  0  0  0  0  0  0  0  0  0  0  0
   -0.6620    2.3097    0.8142 C   0  0  0  0  0  0  0  0  0  0  0  0
   -1.3741    1.4711    1.6657 C   0  0  0  0  0  0  0  0  0  0  0  0
   -2.5967    1.8314    2.0763 F   0  0  0  0  0  0  0  0  0  0  0  0
   -0.8333    0.2690    2.1063 C   0  0  0  0  0  0  0  0  0  0  0  0
    0.4379   -0.1132    1.6763 C   0  0  0  0  0  0  0  0  0  0  0  0
    2.6844   -2.9196   -0.2107 H   0  0  0  0  0  0  0  0  0  0  0  0
    1.2573   -2.0483    0.0015 H   0  0  0  0  0  0  0  0  0  0  0  0
    5.0587   -1.5378   -0.2251 H   0  0  0  0  0  0  0  0  0  0  0  0
    4.9894    3.0018    0.3873 H   0  0  0  0  0  0  0  0  0  0  0  0
    8.3601    2.1461   -1.0406 H   0  0  0  0  0  0  0  0  0  0  0  0
   11.5852    5.3995   -1.4647 H   0  0  0  0  0  0  0  0  0  0  0  0
   13.3421    7.2495   -0.4585 H   0  0  0  0  0  0  0  0  0  0  0  0
   10.0483    7.0968    2.0884 H   0  0  0  0  0  0  0  0  0  0  0  0
    5.9942    5.0920    1.0687 H   0  0  0  0  0  0  0  0  0  0  0  0
    1.1708    2.6051   -0.2706 H   0  0  0  0  0  0  0  0  0  0  0  0
   -1.1112    3.2392    0.4789 H   0  0  0  0  0  0  0  0  0  0  0  0
   -1.3973   -0.3552    2.7926 H   0  0  0  0  0  0  0  0  0  0  0  0
    0.8644   -1.0338    2.0688 H   0  0  0  0  0  0  0  0  0  0  0  0
  1  2  1  0  0  0  0
  1 30  1  0  0  0  0
  1 31  1  0  0  0  0
  2  3  2  0  0  0  0
  2 22  1  0  0  0  0
  3  4  1  0  0  0  0
  3 32  1  0  0  0  0
  4  5  1  0  0  0  0
  4 21  2  0  0  0  0
  5  6  2  0  0  0  0
  5  7  1  0  0  0  0
  7  8  1  0  0  0  0
  7 33  1  0  0  0  0
  8  9  2  0  0  0  0
  8 20  1  0  0  0  0
  9 10  1  0  0  0  0
  9 34  1  0  0  0  0
 10 11  1  0  0  0  0
 10 12  2  0  0  0  0
 12 13  1  0  0  0  0
 12 18  1  0  0  0  0
 13 14  1  0  0  0  0
 13 17  1  0  0  0  0
 14 15  2  0  0  0  0
 14 35  1  0  0  0  0
 15 16  1  0  0  0  0
 15 36  1  0  0  0  0
 16 17  2  0  0  0  0
 17 37  1  0  0  0  0
 18 19  1  0  0  0  0
 18 20  2  0  0  0  0
 20 38  1  0  0  0  0
 21 22  1  0  0  0  0
 22 23  1  0  0  0  0
 23 24  2  0  0  0  0
 23 29  1  0  0  0  0
 24 25  1  0  0  0  0
 24 39  1  0  0  0  0
 25 26  2  0  0  0  0
 25 40  1  0  0  0  0
 26 27  1  0  0  0  0
 26 28  1  0  0  0  0
 28 29  2  0  0  0  0
 28 41  1  0  0  0  0
 29 42  1  0  0  0  0
M  END
$$$$
