
 OpenBabel01122422363D

 50 53  0  0  0  0  0  0  0  0999 V2000
    9.2160    4.4669   -1.6832 C   0  0  0  0  0  0  0  0  0  0  0  0
    8.4005    3.2052   -1.5203 C   0  0  0  0  0  0  0  0  0  0  0  0
    7.2722    3.3007   -0.9005 N   0  0  0  0  0  0  0  0  0  0  0  0
    6.4816    2.1568   -0.6906 C   0  0  0  0  0  0  0  0  0  0  0  0
    5.2445    2.2587    0.0016 C   0  0  0  0  0  0  0  0  0  0  0  0
    4.6558    3.5688    0.3918 C   0  0  0  0  0  0  0  0  0  0  0  0
    4.7337    4.6829   -0.4630 C   0  0  0  0  0  0  0  0  0  0  0  0
    4.2540    5.9370   -0.0834 C   0  0  0  0  0  0  0  0  0  0  0  0
    3.6458    6.1122    1.1596 C   0  0  0  0  0  0  0  0  0  0  0  0
    3.1866    7.4806    1.5851 C   0  0  0  0  0  0  0  0  0  0  0  0
    1.7718    7.5044    1.7949 O   0  0  0  0  0  0  0  0  0  0  0  0
    1.0358    7.6738    0.6655 C   0  0  0  0  0  0  0  0  0  0  0  0
    1.4823    7.8076   -0.4597 O   0  0  0  0  0  0  0  0  0  0  0  0
   -0.4044    7.7030    1.0417 C   0  0  0  0  0  0  0  0  0  0  0  0
   -0.8569    7.0010    2.1745 C   0  0  0  0  0  0  0  0  0  0  0  0
   -2.2060    7.0231    2.5267 C   0  0  0  0  0  0  0  0  0  0  0  0
   -3.1172    7.7396    1.7487 C   0  0  0  0  0  0  0  0  0  0  0  0
   -2.6796    8.4306    0.6217 C   0  0  0  0  0  0  0  0  0  0  0  0
   -1.3276    8.4158    0.2692 C   0  0  0  0  0  0  0  0  0  0  0  0
   -0.9200    9.1328   -0.8196 O   0  0  0  0  0  0  0  0  0  0  0  0
    3.4822    5.0011    1.9925 C   0  0  0  0  0  0  0  0  0  0  0  0
    3.9883    3.7508    1.6159 C   0  0  0  0  0  0  0  0  0  0  0  0
    4.5607    1.0612    0.3093 C   0  0  0  0  0  0  0  0  0  0  0  0
    5.0441   -0.1859   -0.0917 C   0  0  0  0  0  0  0  0  0  0  0  0
    6.2135   -0.2635   -0.8361 C   0  0  0  0  0  0  0  0  0  0  0  0
    6.9247    0.9051   -1.1255 C   0  0  0  0  0  0  0  0  0  0  0  0
    8.1794    0.8391   -1.8991 C   0  0  0  0  0  0  0  0  0  0  0  0
    8.5300   -0.2350   -2.3830 O   0  0  0  0  0  0  0  0  0  0  0  0
    8.8924    2.0258   -2.0319 N   0  0  0  0  0  0  0  0  0  0  0  0
   10.1633    1.9776   -2.7390 C   0  0  0  0  0  0  0  0  0  0  0  0
    8.7019    5.3144   -1.2191 H   0  0  0  0  0  0  0  0  0  0  0  0
    9.3605    4.6900   -2.7434 H   0  0  0  0  0  0  0  0  0  0  0  0
   10.1883    4.3484   -1.1975 H   0  0  0  0  0  0  0  0  0  0  0  0
    5.1951    4.5928   -1.4443 H   0  0  0  0  0  0  0  0  0  0  0  0
    4.3607    6.7740   -0.7706 H   0  0  0  0  0  0  0  0  0  0  0  0
    3.4914    8.2615    0.8776 H   0  0  0  0  0  0  0  0  0  0  0  0
    3.6679    7.7323    2.5375 H   0  0  0  0  0  0  0  0  0  0  0  0
   -0.1620    6.4297    2.7857 H   0  0  0  0  0  0  0  0  0  0  0  0
   -2.5469    6.4843    3.4074 H   0  0  0  0  0  0  0  0  0  0  0  0
   -4.1675    7.7574    2.0258 H   0  0  0  0  0  0  0  0  0  0  0  0
   -3.4038    8.9882    0.0314 H   0  0  0  0  0  0  0  0  0  0  0  0
   -1.6899    9.4769   -1.2994 H   0  0  0  0  0  0  0  0  0  0  0  0
    2.9730    5.1049    2.9475 H   0  0  0  0  0  0  0  0  0  0  0  0
    3.8702    2.9218    2.3092 H   0  0  0  0  0  0  0  0  0  0  0  0
    3.6224    1.0912    0.8602 H   0  0  0  0  0  0  0  0  0  0  0  0
    4.4982   -1.0902    0.1652 H   0  0  0  0  0  0  0  0  0  0  0  0
    6.5776   -1.2292   -1.1785 H   0  0  0  0  0  0  0  0  0  0  0  0
   10.4101    0.9737   -3.0905 H   0  0  0  0  0  0  0  0  0  0  0  0
   10.9558    2.3160   -2.0644 H   0  0  0  0  0  0  0  0  0  0  0  0
   10.1210    2.6522   -3.5993 H   0  0  0  0  0  0  0  0  0  0  0  0
  1  2  1  0  0  0  0
  1 31  1  0  0  0  0
  1 32  1  0  0  0  0
  1 33  1  0  0  0  0
  2  3  2  0  0  0  0
  2 29  1  0  0  0  0
  3  4  1  0  0  0  0
  4  5  2  0  0  0  0
  4 26  1  0  0  0  0
  5  6  1  0  0  0  0
  5 23  1  0  0  0  0
  6  7  2  0  0  0  0
  6 22  1  0  0  0  0
  7  8  1  0  0  0  0
  7 34  1  0  0  0  0
  8  9  2  0  0  0  0
  8 35  1  0  0  0  0
  9 10  1  0  0  0  0
  9 21  1  0  0  0  0
 10 11  1  0  0  0  0
 10 36  1  0  0  0  0
 10 37  1  0  0  0  0
 11 12  1  0  0  0  0
 12 13  2  0  0  0  0
 12 14  1  0  0  0  0
 14 15  2  0  0  0  0
 14 19  1  0  0  0  0
 15 16  1  0  0  0  0
 15 38  1  0  0  0  0
 16 17  2  0  0  0  0
 16 39  1  0  0  0  0
 17 18  1  0  0  0  0
 17 40  1  0  0  0  0
 18 19  2  0  0  0  0
 18 41  1  0  0  0  0
 19 20  1  0  0  0  0
 20 42  1  0  0  0  0
 21 22  2  0  0  0  0
 21 43  1  0  0  0  0
 22 44  1  0  0  0  0
 23 24  2  0  0  0  0
 23 45  1  0  0  0  0
 24 25  1  0  0  0  0
 24 46  1  0  0  0  0
 25 26  2  0  0  0  0
 25 47  1  0  0  0  0
 26 27  1  0  0  0  0
 27 28  2  0  0  0  0
 27 29  1  0  0  0  0
 29 30  1  0  0  0  0
 30 48  1  0  0  0  0
 30 49  1  0  0  0  0
 30 50  1  0  0  0  0
M  END
$$$$
