
 OpenBabel01122422363D

 46 49  0  0  0  0  0  0  0  0999 V2000
    0.2798   -7.5829    0.1514 C   0  0  0  0  0  0  0  0  0  0  0  0
    0.2946   -7.0608   -1.1946 N   0  0  0  0  0  0  0  0  0  0  0  0
    0.0766   -7.8407   -2.2970 C   0  0  0  0  0  0  0  0  0  0  0  0
    0.1748   -7.1564   -3.4050 N   0  0  0  0  0  0  0  0  0  0  0  0
    0.4475   -5.8799   -3.0001 C   0  0  0  0  0  0  0  0  0  0  0  0
    0.4688   -5.7498   -1.6132 C   0  0  0  0  0  0  0  0  0  0  0  0
    0.6287   -4.5488   -0.7484 C   0  0  0  0  0  0  0  0  0  0  0  0
    1.3447   -4.7182    0.4631 C   0  0  0  0  0  0  0  0  0  0  0  0
    1.5104   -3.6913    1.3661 C   0  0  0  0  0  0  0  0  0  0  0  0
    2.1488   -3.9056    2.5033 F   0  0  0  0  0  0  0  0  0  0  0  0
    1.0353   -2.4317    1.0912 C   0  0  0  0  0  0  0  0  0  0  0  0
    0.3533   -2.2050   -0.0978 C   0  0  0  0  0  0  0  0  0  0  0  0
    0.1157   -3.2418   -1.0277 C   0  0  0  0  0  0  0  0  0  0  0  0
   -0.6980   -2.9070   -2.2612 C   0  0  0  0  0  0  0  0  0  0  0  0
   -1.1078   -3.7862   -3.0020 O   0  0  0  0  0  0  0  0  0  0  0  0
   -0.9341   -1.5615   -2.5409 N   0  0  0  0  0  0  0  0  0  0  0  0
   -1.5993   -1.0930   -3.6590 C   0  0  0  0  0  0  0  0  0  0  0  0
   -2.4905   -1.8090   -4.3520 C   0  0  0  0  0  0  0  0  0  0  0  0
   -3.2106   -1.2528   -5.4653 C   0  0  0  0  0  0  0  0  0  0  0  0
   -2.9220   -0.0197   -5.8798 C   0  0  0  0  0  0  0  0  0  0  0  0
   -1.9524    0.7643   -5.2699 N   0  0  0  0  0  0  0  0  0  0  0  0
   -1.5652    2.0112   -5.8445 C   0  0  0  0  0  0  0  0  0  0  0  0
   -1.2013    2.0769   -7.1970 C   0  0  0  0  0  0  0  0  0  0  0  0
   -0.6994    3.2648   -7.7310 C   0  0  0  0  0  0  0  0  0  0  0  0
   -0.5983    4.4010   -6.9297 C   0  0  0  0  0  0  0  0  0  0  0  0
   -1.0130    4.3561   -5.5993 C   0  0  0  0  0  0  0  0  0  0  0  0
   -1.4884    3.1628   -5.0554 C   0  0  0  0  0  0  0  0  0  0  0  0
   -1.2316    0.3088   -4.1311 C   0  0  0  0  0  0  0  0  0  0  0  0
   -0.3139    0.8878   -3.5668 O   0  0  0  0  0  0  0  0  0  0  0  0
    0.0765   -8.6549    0.1376 H   0  0  0  0  0  0  0  0  0  0  0  0
   -0.4873   -7.0559    0.7227 H   0  0  0  0  0  0  0  0  0  0  0  0
    1.2686   -7.4657    0.5971 H   0  0  0  0  0  0  0  0  0  0  0  0
   -0.1472   -8.8945   -2.2346 H   0  0  0  0  0  0  0  0  0  0  0  0
    0.5684   -5.0971   -3.7385 H   0  0  0  0  0  0  0  0  0  0  0  0
    1.8223   -5.6467    0.7311 H   0  0  0  0  0  0  0  0  0  0  0  0
    1.2022   -1.6238    1.7897 H   0  0  0  0  0  0  0  0  0  0  0  0
   -0.0069   -1.2012   -0.2506 H   0  0  0  0  0  0  0  0  0  0  0  0
   -0.4782   -0.8251   -2.0165 H   0  0  0  0  0  0  0  0  0  0  0  0
   -2.7505   -2.8282   -4.0893 H   0  0  0  0  0  0  0  0  0  0  0  0
   -3.9728   -1.8613   -5.9171 H   0  0  0  0  0  0  0  0  0  0  0  0
   -3.4837    0.4277   -6.6930 H   0  0  0  0  0  0  0  0  0  0  0  0
   -1.2268    1.1874   -7.8218 H   0  0  0  0  0  0  0  0  0  0  0  0
   -0.3589    3.2956   -8.7629 H   0  0  0  0  0  0  0  0  0  0  0  0
   -0.1828    5.3190   -7.3372 H   0  0  0  0  0  0  0  0  0  0  0  0
   -0.9436    5.2429   -4.9758 H   0  0  0  0  0  0  0  0  0  0  0  0
   -1.8020    3.1368   -4.0150 H   0  0  0  0  0  0  0  0  0  0  0  0
  1  2  1  0  0  0  0
  1 30  1  0  0  0  0
  1 31  1  0  0  0  0
  1 32  1  0  0  0  0
  2  3  1  0  0  0  0
  2  6  1  0  0  0  0
  3  4  2  0  0  0  0
  3 33  1  0  0  0  0
  4  5  1  0  0  0  0
  5  6  2  0  0  0  0
  5 34  1  0  0  0  0
  6  7  1  0  0  0  0
  7  8  2  0  0  0  0
  7 13  1  0  0  0  0
  8  9  1  0  0  0  0
  8 35  1  0  0  0  0
  9 10  1  0  0  0  0
  9 11  2  0  0  0  0
 11 12  1  0  0  0  0
 11 36  1  0  0  0  0
 12 13  2  0  0  0  0
 12 37  1  0  0  0  0
 13 14  1  0  0  0  0
 14 15  2  0  0  0  0
 14 16  1  0  0  0  0
 16 17  1  0  0  0  0
 16 38  1  0  0  0  0
 17 18  2  0  0  0  0
 17 28  1  0  0  0  0
 18 19  1  0  0  0  0
 18 39  1  0  0  0  0
 19 20  2  0  0  0  0
 19 40  1  0  0  0  0
 20 21  1  0  0  0  0
 20 41  1  0  0  0  0
 21 22  1  0  0  0  0
 21 28  1  0  0  0  0
 22 23  2  0  0  0  0
 22 27  1  0  0  0  0
 23 24  1  0  0  0  0
 23 42  1  0  0  0  0
 24 25  2  0  0  0  0
 24 43  1  0  0  0  0
 25 26  1  0  0  0  0
 25 44  1  0  0  0  0
 26 27  2  0  0  0  0
 26 45  1  0  0  0  0
 27 46  1  0  0  0  0
 28 29  2  0  0  0  0
M  END
$$$$
