
 OpenBabel01122422363D

 46 49  0  0  0  0  0  0  0  0999 V2000
   -1.5242   -7.0274    1.3153 C   0  0  0  0  0  0  0  0  0  0  0  0
   -2.5502   -6.0676    0.9817 N   0  0  0  0  0  0  0  0  0  0  0  0
   -3.8297   -6.4009    1.2495 N   0  0  0  0  0  0  0  0  0  0  0  0
   -4.5349   -5.3766    0.7767 C   0  0  0  0  0  0  0  0  0  0  0  0
   -3.7130   -4.3694    0.2527 C   0  0  0  0  0  0  0  0  0  0  0  0
   -2.4149   -4.8329    0.3792 C   0  0  0  0  0  0  0  0  0  0  0  0
   -1.2031   -4.1893   -0.0403 C   0  0  0  0  0  0  0  0  0  0  0  0
   -0.9353   -3.2837   -1.0602 C   0  0  0  0  0  0  0  0  0  0  0  0
   -1.8316   -2.7609   -2.0914 C   0  0  0  0  0  0  0  0  0  0  0  0
   -2.8645   -3.3453   -2.4009 O   0  0  0  0  0  0  0  0  0  0  0  0
   -1.3647   -1.5901   -2.6662 N   0  0  0  0  0  0  0  0  0  0  0  0
   -1.9990   -0.8508   -3.6928 C   0  0  0  0  0  0  0  0  0  0  0  0
   -3.3149   -1.0864   -4.0840 C   0  0  0  0  0  0  0  0  0  0  0  0
   -3.8557   -0.4110   -5.1686 C   0  0  0  0  0  0  0  0  0  0  0  0
   -3.0801    0.5098   -5.8703 C   0  0  0  0  0  0  0  0  0  0  0  0
   -1.7724    0.8433   -5.4714 C   0  0  0  0  0  0  0  0  0  0  0  0
   -1.0092    1.9143   -6.1943 C   0  0  0  0  0  0  0  0  0  0  0  0
   -1.7313    2.9881   -6.7709 C   0  0  0  0  0  0  0  0  0  0  0  0
   -1.1083    4.0249   -7.4661 C   0  0  0  0  0  0  0  0  0  0  0  0
    0.2733    4.0622   -7.5416 C   0  0  0  0  0  0  0  0  0  0  0  0
    1.0243    3.0384   -6.9665 C   0  0  0  0  0  0  0  0  0  0  0  0
    0.4004    1.9331   -6.3613 C   0  0  0  0  0  0  0  0  0  0  0  0
    1.0969    0.8394   -5.9214 O   0  0  0  0  0  0  0  0  0  0  0  0
    2.3785    0.5567   -6.4633 C   0  0  0  0  0  0  0  0  0  0  0  0
    2.5599    1.0345   -7.7124 F   0  0  0  0  0  0  0  0  0  0  0  0
    3.3363    1.0635   -5.6535 F   0  0  0  0  0  0  0  0  0  0  0  0
    2.5386   -0.7842   -6.5122 F   0  0  0  0  0  0  0  0  0  0  0  0
   -1.2591    0.1517   -4.3491 C   0  0  0  0  0  0  0  0  0  0  0  0
    0.3859   -2.8932   -0.9876 N   0  0  0  0  0  0  0  0  0  0  0  0
    0.9517   -3.5330    0.0222 N   0  0  0  0  0  0  0  0  0  0  0  0
    0.0050   -4.2899    0.5956 N   0  0  0  0  0  0  0  0  0  0  0  0
   -1.9844   -7.9126    1.7641 H   0  0  0  0  0  0  0  0  0  0  0  0
   -0.8482   -6.5750    2.0430 H   0  0  0  0  0  0  0  0  0  0  0  0
   -0.9965   -7.3078    0.4016 H   0  0  0  0  0  0  0  0  0  0  0  0
   -5.6161   -5.4023    0.8344 H   0  0  0  0  0  0  0  0  0  0  0  0
   -4.0357   -3.4353   -0.1855 H   0  0  0  0  0  0  0  0  0  0  0  0
   -0.4319   -1.3048   -2.3936 H   0  0  0  0  0  0  0  0  0  0  0  0
   -3.9541   -1.7927   -3.5648 H   0  0  0  0  0  0  0  0  0  0  0  0
   -4.8785   -0.6129   -5.4753 H   0  0  0  0  0  0  0  0  0  0  0  0
   -3.5328    0.9717   -6.7445 H   0  0  0  0  0  0  0  0  0  0  0  0
   -2.8153    3.0368   -6.6851 H   0  0  0  0  0  0  0  0  0  0  0  0
   -1.7072    4.8068   -7.9261 H   0  0  0  0  0  0  0  0  0  0  0  0
    0.7680    4.8835   -8.0536 H   0  0  0  0  0  0  0  0  0  0  0  0
    2.1063    3.1254   -7.0254 H   0  0  0  0  0  0  0  0  0  0  0  0
   -0.2622    0.3847   -3.9863 H   0  0  0  0  0  0  0  0  0  0  0  0
    0.2535   -4.8077    1.4282 H   0  0  0  0  0  0  0  0  0  0  0  0
  1  2  1  0  0  0  0
  1 32  1  0  0  0  0
  1 33  1  0  0  0  0
  1 34  1  0  0  0  0
  2  3  1  0  0  0  0
  2  6  1  0  0  0  0
  3  4  2  0  0  0  0
  4  5  1  0  0  0  0
  4 35  1  0  0  0  0
  5  6  2  0  0  0  0
  5 36  1  0  0  0  0
  6  7  1  0  0  0  0
  7  8  2  0  0  0  0
  7 31  1  0  0  0  0
  8  9  1  0  0  0  0
  8 29  1  0  0  0  0
  9 10  2  0  0  0  0
  9 11  1  0  0  0  0
 11 12  1  0  0  0  0
 11 37  1  0  0  0  0
 12 13  2  0  0  0  0
 12 28  1  0  0  0  0
 13 14  1  0  0  0  0
 13 38  1  0  0  0  0
 14 15  2  0  0  0  0
 14 39  1  0  0  0  0
 15 16  1  0  0  0  0
 15 40  1  0  0  0  0
 16 17  1  0  0  0  0
 16 28  2  0  0  0  0
 17 18  2  0  0  0  0
 17 22  1  0  0  0  0
 18 19  1  0  0  0  0
 18 41  1  0  0  0  0
 19 20  2  0  0  0  0
 19 42  1  0  0  0  0
 20 21  1  0  0  0  0
 20 43  1  0  0  0  0
 21 22  2  0  0  0  0
 21 44  1  0  0  0  0
 22 23  1  0  0  0  0
 23 24  1  0  0  0  0
 24 25  1  0  0  0  0
 24 26  1  0  0  0  0
 24 27  1  0  0  0  0
 28 45  1  0  0  0  0
 29 30  2  0  0  0  0
 30 31  1  0  0  0  0
 31 46  1  0  0  0  0
M  END
$$$$
