
 OpenBabel01122422363D

 45 48  0  0  0  0  0  0  0  0999 V2000
    0.8508   -0.1255   -0.4875 O   0  0  0  0  0  0  0  0  0  0  0  0
    2.0494    0.1450   -0.4735 C   0  0  0  0  0  0  0  0  0  0  0  0
    2.5950    1.3972   -0.2470 N   0  0  0  0  0  0  0  0  0  0  0  0
    1.8822    2.5802    0.0603 C   0  0  0  0  0  0  0  0  0  0  0  0
    0.4898    2.6441    0.1320 C   0  0  0  0  0  0  0  0  0  0  0  0
   -0.1594    3.8227    0.5169 C   0  0  0  0  0  0  0  0  0  0  0  0
    0.5652    4.9770    0.8241 C   0  0  0  0  0  0  0  0  0  0  0  0
   -0.1356    6.1993    1.2246 C   0  0  0  0  0  0  0  0  0  0  0  0
   -1.2902    6.3249    1.9014 C   0  0  0  0  0  0  0  0  0  0  0  0
   -1.5871    7.6600    2.0263 N   0  0  0  0  0  0  0  0  0  0  0  0
   -0.5841    8.4130    1.4050 C   0  0  0  0  0  0  0  0  0  0  0  0
   -0.5193    9.6217    1.3019 O   0  0  0  0  0  0  0  0  0  0  0  0
    0.3187    7.4605    0.9225 N   0  0  0  0  0  0  0  0  0  0  0  0
    1.9610    4.9272    0.7098 C   0  0  0  0  0  0  0  0  0  0  0  0
    2.6120    3.7405    0.3329 C   0  0  0  0  0  0  0  0  0  0  0  0
    2.9917   -0.9892   -0.6763 C   0  0  0  0  0  0  0  0  0  0  0  0
    2.5228   -2.2646   -0.3144 C   0  0  0  0  0  0  0  0  0  0  0  0
    3.3297   -3.3813   -0.4724 C   0  0  0  0  0  0  0  0  0  0  0  0
    4.5927   -3.1840   -0.9932 C   0  0  0  0  0  0  0  0  0  0  0  0
    5.0830   -1.9719   -1.3322 N   0  0  0  0  0  0  0  0  0  0  0  0
    4.2929   -0.8774   -1.1809 C   0  0  0  0  0  0  0  0  0  0  0  0
    4.8134    0.3791   -1.5705 N   0  0  0  0  0  0  0  0  0  0  0  0
    6.1842    0.7186   -1.6901 C   0  0  0  0  0  0  0  0  0  0  0  0
    7.1492    0.2379   -0.7952 C   0  0  0  0  0  0  0  0  0  0  0  0
    8.4674    0.7048   -0.8423 C   0  0  0  0  0  0  0  0  0  0  0  0
    8.8414    1.6585   -1.7881 C   0  0  0  0  0  0  0  0  0  0  0  0
    7.9008    2.1341   -2.6990 C   0  0  0  0  0  0  0  0  0  0  0  0
    6.5885    1.6701   -2.6370 C   0  0  0  0  0  0  0  0  0  0  0  0
    5.6866    2.1533   -3.5064 F   0  0  0  0  0  0  0  0  0  0  0  0
    3.6093    1.4641   -0.2358 H   0  0  0  0  0  0  0  0  0  0  0  0
   -0.1382    1.7912   -0.0989 H   0  0  0  0  0  0  0  0  0  0  0  0
   -1.2461    3.8145    0.5622 H   0  0  0  0  0  0  0  0  0  0  0  0
   -1.9393    5.5635    2.3054 H   0  0  0  0  0  0  0  0  0  0  0  0
   -2.3981    8.0677    2.4655 H   0  0  0  0  0  0  0  0  0  0  0  0
    1.1388    7.6967    0.3861 H   0  0  0  0  0  0  0  0  0  0  0  0
    2.5647    5.8029    0.9367 H   0  0  0  0  0  0  0  0  0  0  0  0
    3.6985    3.7418    0.2703 H   0  0  0  0  0  0  0  0  0  0  0  0
    1.5208   -2.3841    0.1013 H   0  0  0  0  0  0  0  0  0  0  0  0
    2.9832   -4.3689   -0.2000 H   0  0  0  0  0  0  0  0  0  0  0  0
    5.2662   -4.0205   -1.1570 H   0  0  0  0  0  0  0  0  0  0  0  0
    4.2766    0.7471   -2.3575 H   0  0  0  0  0  0  0  0  0  0  0  0
    6.8802   -0.4961   -0.0392 H   0  0  0  0  0  0  0  0  0  0  0  0
    9.1973    0.3293   -0.1285 H   0  0  0  0  0  0  0  0  0  0  0  0
    9.8622    2.0317   -1.8102 H   0  0  0  0  0  0  0  0  0  0  0  0
    8.1764    2.8712   -3.4462 H   0  0  0  0  0  0  0  0  0  0  0  0
  1  2  2  0  0  0  0
  2  3  1  0  0  0  0
  2 16  1  0  0  0  0
  3  4  1  0  0  0  0
  3 30  1  0  0  0  0
  4  5  2  0  0  0  0
  4 15  1  0  0  0  0
  5  6  1  0  0  0  0
  5 31  1  0  0  0  0
  6  7  2  0  0  0  0
  6 32  1  0  0  0  0
  7  8  1  0  0  0  0
  7 14  1  0  0  0  0
  8  9  2  0  0  0  0
  8 13  1  0  0  0  0
  9 10  1  0  0  0  0
  9 33  1  0  0  0  0
 10 11  1  0  0  0  0
 10 34  1  0  0  0  0
 11 12  2  0  0  0  0
 11 13  1  0  0  0  0
 13 35  1  0  0  0  0
 14 15  2  0  0  0  0
 14 36  1  0  0  0  0
 15 37  1  0  0  0  0
 16 17  2  0  0  0  0
 16 21  1  0  0  0  0
 17 18  1  0  0  0  0
 17 38  1  0  0  0  0
 18 19  2  0  0  0  0
 18 39  1  0  0  0  0
 19 20  1  0  0  0  0
 19 40  1  0  0  0  0
 20 21  2  0  0  0  0
 21 22  1  0  0  0  0
 22 23  1  0  0  0  0
 22 41  1  0  0  0  0
 23 24  2  0  0  0  0
 23 28  1  0  0  0  0
 24 25  1  0  0  0  0
 24 42  1  0  0  0  0
 25 26  2  0  0  0  0
 25 43  1  0  0  0  0
 26 27  1  0  0  0  0
 26 44  1  0  0  0  0
 27 28  2  0  0  0  0
 27 45  1  0  0  0  0
 28 29  1  0  0  0  0
M  END
$$$$
