
 OpenBabel01122422363D

 50 53  0  0  0  0  0  0  0  0999 V2000
    2.5174    0.3657   -1.0397 C   0  0  0  0  0  0  0  0  0  0  0  0
    3.7130   -0.4830   -0.6435 C   0  0  0  0  0  0  0  0  0  0  0  0
    3.4339   -1.2927    0.5375 N   0  0  0  0  0  0  0  0  0  0  0  0
    2.9026   -2.5374    0.3069 N   0  0  0  0  0  0  0  0  0  0  0  0
    2.6535   -3.3168    1.3208 C   0  0  0  0  0  0  0  0  0  0  0  0
    2.0908   -4.6942    0.9636 C   0  0  0  0  0  0  0  0  0  0  0  0
    2.4031   -5.6917    1.5955 O   0  0  0  0  0  0  0  0  0  0  0  0
    1.2522   -4.6853   -0.1231 N   0  0  0  0  0  0  0  0  0  0  0  0
    0.6301   -5.8868   -0.6250 C   0  0  0  0  0  0  0  0  0  0  0  0
   -0.7399   -6.1147   -0.0308 C   0  0  0  0  0  0  0  0  0  0  0  0
   -0.8635   -6.7124    1.2196 C   0  0  0  0  0  0  0  0  0  0  0  0
   -2.1368   -7.0183    1.6921 C   0  0  0  0  0  0  0  0  0  0  0  0
   -2.3780   -7.6687    2.8809 O   0  0  0  0  0  0  0  0  0  0  0  0
   -1.5283   -8.6760    3.2851 C   0  0  0  0  0  0  0  0  0  0  0  0
   -0.8642   -9.5467    2.4111 C   0  0  0  0  0  0  0  0  0  0  0  0
    0.0048  -10.5196    2.9107 C   0  0  0  0  0  0  0  0  0  0  0  0
    0.1679  -10.6612    4.2867 C   0  0  0  0  0  0  0  0  0  0  0  0
   -0.5432   -9.8336    5.1492 C   0  0  0  0  0  0  0  0  0  0  0  0
   -0.4065   -9.9918    6.4723 F   0  0  0  0  0  0  0  0  0  0  0  0
   -1.3894   -8.8434    4.6626 C   0  0  0  0  0  0  0  0  0  0  0  0
   -3.2507   -6.6205    0.9645 C   0  0  0  0  0  0  0  0  0  0  0  0
   -3.0410   -5.9792   -0.2428 C   0  0  0  0  0  0  0  0  0  0  0  0
   -1.8173   -5.7319   -0.7617 N   0  0  0  0  0  0  0  0  0  0  0  0
    2.8840   -2.9279    2.7258 C   0  0  0  0  0  0  0  0  0  0  0  0
    2.6210   -3.7575    3.8237 C   0  0  0  0  0  0  0  0  0  0  0  0
    2.8935   -3.3159    5.1229 C   0  0  0  0  0  0  0  0  0  0  0  0
    3.4099   -2.0405    5.3370 C   0  0  0  0  0  0  0  0  0  0  0  0
    3.6548   -1.2039    4.2505 C   0  0  0  0  0  0  0  0  0  0  0  0
    3.3942   -1.6516    2.9469 C   0  0  0  0  0  0  0  0  0  0  0  0
    3.6750   -0.7654    1.8028 C   0  0  0  0  0  0  0  0  0  0  0  0
    4.1020    0.3682    2.0061 O   0  0  0  0  0  0  0  0  0  0  0  0
    2.7640    0.9893   -1.9044 H   0  0  0  0  0  0  0  0  0  0  0  0
    2.2091    1.0222   -0.2196 H   0  0  0  0  0  0  0  0  0  0  0  0
    1.6617   -0.2643   -1.3034 H   0  0  0  0  0  0  0  0  0  0  0  0
    4.5714    0.1661   -0.4377 H   0  0  0  0  0  0  0  0  0  0  0  0
    3.9966   -1.1499   -1.4657 H   0  0  0  0  0  0  0  0  0  0  0  0
    1.1002   -3.8069   -0.6075 H   0  0  0  0  0  0  0  0  0  0  0  0
    1.2694   -6.7546   -0.4217 H   0  0  0  0  0  0  0  0  0  0  0  0
    0.5519   -5.7896   -1.7132 H   0  0  0  0  0  0  0  0  0  0  0  0
    0.0258   -6.9627    1.7903 H   0  0  0  0  0  0  0  0  0  0  0  0
   -1.0009   -9.4722    1.3355 H   0  0  0  0  0  0  0  0  0  0  0  0
    0.5502  -11.1641    2.2260 H   0  0  0  0  0  0  0  0  0  0  0  0
    0.8357  -11.4149    4.6916 H   0  0  0  0  0  0  0  0  0  0  0  0
   -1.9284   -8.2091    5.3584 H   0  0  0  0  0  0  0  0  0  0  0  0
   -4.2545   -6.8085    1.3260 H   0  0  0  0  0  0  0  0  0  0  0  0
   -3.8777   -5.6454   -0.8510 H   0  0  0  0  0  0  0  0  0  0  0  0
    2.2163   -4.7588    3.7067 H   0  0  0  0  0  0  0  0  0  0  0  0
    2.7059   -3.9740    5.9691 H   0  0  0  0  0  0  0  0  0  0  0  0
    3.6242   -1.6986    6.3470 H   0  0  0  0  0  0  0  0  0  0  0  0
    4.0562   -0.2060    4.4186 H   0  0  0  0  0  0  0  0  0  0  0  0
  1  2  1  0  0  0  0
  1 32  1  0  0  0  0
  1 33  1  0  0  0  0
  1 34  1  0  0  0  0
  2  3  1  0  0  0  0
  2 35  1  0  0  0  0
  2 36  1  0  0  0  0
  3  4  1  0  0  0  0
  3 30  1  0  0  0  0
  4  5  2  0  0  0  0
  5  6  1  0  0  0  0
  5 24  1  0  0  0  0
  6  7  2  0  0  0  0
  6  8  1  0  0  0  0
  8  9  1  0  0  0  0
  8 37  1  0  0  0  0
  9 10  1  0  0  0  0
  9 38  1  0  0  0  0
  9 39  1  0  0  0  0
 10 11  2  0  0  0  0
 10 23  1  0  0  0  0
 11 12  1  0  0  0  0
 11 40  1  0  0  0  0
 12 13  1  0  0  0  0
 12 21  2  0  0  0  0
 13 14  1  0  0  0  0
 14 15  2  0  0  0  0
 14 20  1  0  0  0  0
 15 16  1  0  0  0  0
 15 41  1  0  0  0  0
 16 17  2  0  0  0  0
 16 42  1  0  0  0  0
 17 18  1  0  0  0  0
 17 43  1  0  0  0  0
 18 19  1  0  0  0  0
 18 20  2  0  0  0  0
 20 44  1  0  0  0  0
 21 22  1  0  0  0  0
 21 45  1  0  0  0  0
 22 23  2  0  0  0  0
 22 46  1  0  0  0  0
 24 25  2  0  0  0  0
 24 29  1  0  0  0  0
 25 26  1  0  0  0  0
 25 47  1  0  0  0  0
 26 27  2  0  0  0  0
 26 48  1  0  0  0  0
 27 28  1  0  0  0  0
 27 49  1  0  0  0  0
 28 29  2  0  0  0  0
 28 50  1  0  0  0  0
 29 30  1  0  0  0  0
 30 31  2  0  0  0  0
M  END
$$$$
