
 OpenBabel01122422363D

 51 54  0  0  0  0  0  0  0  0999 V2000
    0.9969    0.1678   -0.1529 N   0  0  0  0  0  0  0  0  0  0  0  0
    2.3454    0.1684   -0.2106 C   0  0  0  0  0  0  0  0  0  0  0  0
    3.1963    1.2624   -0.1874 C   0  0  0  0  0  0  0  0  0  0  0  0
    2.7471    2.6441   -0.1263 C   0  0  0  0  0  0  0  0  0  0  0  0
    1.5520    2.9424   -0.1041 O   0  0  0  0  0  0  0  0  0  0  0  0
    3.7314    3.6051   -0.1259 N   0  0  0  0  0  0  0  0  0  0  0  0
    3.3815    5.0052   -0.1044 C   0  0  0  0  0  0  0  0  0  0  0  0
    3.3459    5.5565    1.2971 C   0  0  0  0  0  0  0  0  0  0  0  0
    4.5131    6.0729    1.8750 C   0  0  0  0  0  0  0  0  0  0  0  0
    4.4929    6.5989    3.1655 C   0  0  0  0  0  0  0  0  0  0  0  0
    3.3046    6.6136    3.9042 C   0  0  0  0  0  0  0  0  0  0  0  0
    3.2894    7.1455    5.2728 C   0  0  0  0  0  0  0  0  0  0  0  0
    3.0236    8.4585    5.4516 C   0  0  0  0  0  0  0  0  0  0  0  0
    3.0024    8.9988    6.7137 N   0  0  0  0  0  0  0  0  0  0  0  0
    3.2457    8.2913    7.8613 C   0  0  0  0  0  0  0  0  0  0  0  0
    3.2313    8.7978    8.9762 O   0  0  0  0  0  0  0  0  0  0  0  0
    3.5343    6.8461    7.6790 C   0  0  0  0  0  0  0  0  0  0  0  0
    3.5522    6.3300    6.4407 C   0  0  0  0  0  0  0  0  0  0  0  0
    2.1381    6.0895    3.3402 C   0  0  0  0  0  0  0  0  0  0  0  0
    2.1591    5.5588    2.0449 C   0  0  0  0  0  0  0  0  0  0  0  0
    4.4834    0.6900   -0.2690 C   0  0  0  0  0  0  0  0  0  0  0  0
    4.4644   -0.6403   -0.3837 N   0  0  0  0  0  0  0  0  0  0  0  0
    3.1417   -0.9477   -0.3561 N   0  0  0  0  0  0  0  0  0  0  0  0
    2.7358   -2.3204   -0.6441 C   0  0  0  0  0  0  0  0  0  0  0  0
    2.6408   -3.1521    0.6106 C   0  0  0  0  0  0  0  0  0  0  0  0
    1.4208   -3.2698    1.2900 C   0  0  0  0  0  0  0  0  0  0  0  0
    1.3585   -3.9114    2.5267 C   0  0  0  0  0  0  0  0  0  0  0  0
    2.5070   -4.4713    3.0818 C   0  0  0  0  0  0  0  0  0  0  0  0
    3.7135   -4.4171    2.3869 C   0  0  0  0  0  0  0  0  0  0  0  0
    3.7822   -3.7598    1.1571 C   0  0  0  0  0  0  0  0  0  0  0  0
    0.5199    1.0733   -0.0638 H   0  0  0  0  0  0  0  0  0  0  0  0
    0.3920   -0.6370   -0.0588 H   0  0  0  0  0  0  0  0  0  0  0  0
    4.7017    3.3445   -0.0572 H   0  0  0  0  0  0  0  0  0  0  0  0
    2.4174    5.1665   -0.5999 H   0  0  0  0  0  0  0  0  0  0  0  0
    4.1325    5.5381   -0.6975 H   0  0  0  0  0  0  0  0  0  0  0  0
    5.4446    6.0746    1.3147 H   0  0  0  0  0  0  0  0  0  0  0  0
    5.4096    7.0019    3.5914 H   0  0  0  0  0  0  0  0  0  0  0  0
    2.8222    9.1397    4.6314 H   0  0  0  0  0  0  0  0  0  0  0  0
    2.8047    9.9834    6.8385 H   0  0  0  0  0  0  0  0  0  0  0  0
    3.7227    6.2633    8.5703 H   0  0  0  0  0  0  0  0  0  0  0  0
    3.7649    5.2741    6.2899 H   0  0  0  0  0  0  0  0  0  0  0  0
    1.2057    6.0925    3.8995 H   0  0  0  0  0  0  0  0  0  0  0  0
    1.2402    5.1491    1.6246 H   0  0  0  0  0  0  0  0  0  0  0  0
    5.4473    1.1801   -0.2727 H   0  0  0  0  0  0  0  0  0  0  0  0
    3.4731   -2.7445   -1.3370 H   0  0  0  0  0  0  0  0  0  0  0  0
    1.7803   -2.2915   -1.1798 H   0  0  0  0  0  0  0  0  0  0  0  0
    0.5147   -2.8364    0.8758 H   0  0  0  0  0  0  0  0  0  0  0  0
    0.4176   -3.9509    3.0689 H   0  0  0  0  0  0  0  0  0  0  0  0
    2.4638   -4.9391    4.0617 H   0  0  0  0  0  0  0  0  0  0  0  0
    4.6083   -4.8596    2.8176 H   0  0  0  0  0  0  0  0  0  0  0  0
    4.7404   -3.6940    0.6438 H   0  0  0  0  0  0  0  0  0  0  0  0
  1  2  1  0  0  0  0
  1 31  1  0  0  0  0
  1 32  1  0  0  0  0
  2  3  2  0  0  0  0
  2 23  1  0  0  0  0
  3  4  1  0  0  0  0
  3 21  1  0  0  0  0
  4  5  2  0  0  0  0
  4  6  1  0  0  0  0
  6  7  1  0  0  0  0
  6 33  1  0  0  0  0
  7  8  1  0  0  0  0
  7 34  1  0  0  0  0
  7 35  1  0  0  0  0
  8  9  2  0  0  0  0
  8 20  1  0  0  0  0
  9 10  1  0  0  0  0
  9 36  1  0  0  0  0
 10 11  2  0  0  0  0
 10 37  1  0  0  0  0
 11 12  1  0  0  0  0
 11 19  1  0  0  0  0
 12 13  2  0  0  0  0
 12 18  1  0  0  0  0
 13 14  1  0  0  0  0
 13 38  1  0  0  0  0
 14 15  1  0  0  0  0
 14 39  1  0  0  0  0
 15 16  2  0  0  0  0
 15 17  1  0  0  0  0
 17 18  2  0  0  0  0
 17 40  1  0  0  0  0
 18 41  1  0  0  0  0
 19 20  2  0  0  0  0
 19 42  1  0  0  0  0
 20 43  1  0  0  0  0
 21 22  2  0  0  0  0
 21 44  1  0  0  0  0
 22 23  1  0  0  0  0
 23 24  1  0  0  0  0
 24 25  1  0  0  0  0
 24 45  1  0  0  0  0
 24 46  1  0  0  0  0
 25 26  2  0  0  0  0
 25 30  1  0  0  0  0
 26 27  1  0  0  0  0
 26 47  1  0  0  0  0
 27 28  2  0  0  0  0
 27 48  1  0  0  0  0
 28 29  1  0  0  0  0
 28 49  1  0  0  0  0
 29 30  2  0  0  0  0
 29 50  1  0  0  0  0
 30 51  1  0  0  0  0
M  END
$$$$
