
 OpenBabel01122422363D

 50 53  0  0  0  0  0  0  0  0999 V2000
    3.7815   -2.2503   -0.2185 C   0  0  0  0  0  0  0  0  0  0  0  0
    4.5367   -1.2213   -0.8672 O   0  0  0  0  0  0  0  0  0  0  0  0
    4.3223    0.0159   -0.3541 C   0  0  0  0  0  0  0  0  0  0  0  0
    3.5822    0.2839    0.5779 O   0  0  0  0  0  0  0  0  0  0  0  0
    5.1124    1.0327   -1.0861 C   0  0  0  0  0  0  0  0  0  0  0  0
    5.3044    0.8742   -2.4706 C   0  0  0  0  0  0  0  0  0  0  0  0
    5.9438    1.8667   -3.2133 C   0  0  0  0  0  0  0  0  0  0  0  0
    6.3882    3.0256   -2.5809 C   0  0  0  0  0  0  0  0  0  0  0  0
    6.2361    3.1756   -1.1956 C   0  0  0  0  0  0  0  0  0  0  0  0
    5.6111    2.1822   -0.4480 C   0  0  0  0  0  0  0  0  0  0  0  0
    5.5975    2.3837    1.0029 C   0  0  0  0  0  0  0  0  0  0  0  0
    6.1402    3.3928    1.6137 N   0  0  0  0  0  0  0  0  0  0  0  0
    6.7326    4.3907    0.8636 N   0  0  0  0  0  0  0  0  0  0  0  0
    7.3791    5.4917    1.6061 C   0  0  0  0  0  0  0  0  0  0  0  0
    6.4180    6.5688    2.0731 C   0  0  0  0  0  0  0  0  0  0  0  0
    5.3601    6.1872    2.9255 C   0  0  0  0  0  0  0  0  0  0  0  0
    4.4275    7.1101    3.3920 C   0  0  0  0  0  0  0  0  0  0  0  0
    4.5210    8.4349    2.9986 C   0  0  0  0  0  0  0  0  0  0  0  0
    5.5716    8.8402    2.1773 C   0  0  0  0  0  0  0  0  0  0  0  0
    6.5594    7.9338    1.7515 C   0  0  0  0  0  0  0  0  0  0  0  0
    7.6834    8.3342    1.0567 O   0  0  0  0  0  0  0  0  0  0  0  0
    7.9564    9.7458    1.1133 C   0  0  0  0  0  0  0  0  0  0  0  0
    9.3676   10.1104    0.7105 C   0  0  0  0  0  0  0  0  0  0  0  0
   10.0314    9.4584   -0.3330 C   0  0  0  0  0  0  0  0  0  0  0  0
   11.3263    9.8425   -0.6927 C   0  0  0  0  0  0  0  0  0  0  0  0
   11.9628   10.8897   -0.0257 C   0  0  0  0  0  0  0  0  0  0  0  0
   11.2993   11.5707    0.9905 C   0  0  0  0  0  0  0  0  0  0  0  0
   10.0063   11.1897    1.3494 C   0  0  0  0  0  0  0  0  0  0  0  0
    6.7852    4.3737   -0.5257 C   0  0  0  0  0  0  0  0  0  0  0  0
    7.2874    5.2572   -1.2163 O   0  0  0  0  0  0  0  0  0  0  0  0
    3.9906   -3.1978   -0.7225 H   0  0  0  0  0  0  0  0  0  0  0  0
    2.7078   -2.0482   -0.2962 H   0  0  0  0  0  0  0  0  0  0  0  0
    4.0824   -2.3397    0.8302 H   0  0  0  0  0  0  0  0  0  0  0  0
    4.9465   -0.0163   -2.9850 H   0  0  0  0  0  0  0  0  0  0  0  0
    6.0918    1.7414   -4.2840 H   0  0  0  0  0  0  0  0  0  0  0  0
    6.8755    3.8052   -3.1649 H   0  0  0  0  0  0  0  0  0  0  0  0
    5.1306    1.6244    1.6471 H   0  0  0  0  0  0  0  0  0  0  0  0
    8.1772    5.9110    0.9857 H   0  0  0  0  0  0  0  0  0  0  0  0
    7.8694    5.0520    2.4848 H   0  0  0  0  0  0  0  0  0  0  0  0
    5.2643    5.1494    3.2394 H   0  0  0  0  0  0  0  0  0  0  0  0
    3.6277    6.7884    4.0524 H   0  0  0  0  0  0  0  0  0  0  0  0
    3.7888    9.1610    3.3395 H   0  0  0  0  0  0  0  0  0  0  0  0
    5.5952    9.8882    1.8957 H   0  0  0  0  0  0  0  0  0  0  0  0
    7.8221   10.0984    2.1445 H   0  0  0  0  0  0  0  0  0  0  0  0
    7.2697   10.2788    0.4436 H   0  0  0  0  0  0  0  0  0  0  0  0
    9.5434    8.6462   -0.8684 H   0  0  0  0  0  0  0  0  0  0  0  0
   11.8401    9.3213   -1.4960 H   0  0  0  0  0  0  0  0  0  0  0  0
   12.9738   11.1775   -0.3013 H   0  0  0  0  0  0  0  0  0  0  0  0
   11.7858   12.3960    1.5038 H   0  0  0  0  0  0  0  0  0  0  0  0
    9.4982   11.7415    2.1381 H   0  0  0  0  0  0  0  0  0  0  0  0
  1  2  1  0  0  0  0
  1 31  1  0  0  0  0
  1 32  1  0  0  0  0
  1 33  1  0  0  0  0
  2  3  1  0  0  0  0
  3  4  2  0  0  0  0
  3  5  1  0  0  0  0
  5  6  2  0  0  0  0
  5 10  1  0  0  0  0
  6  7  1  0  0  0  0
  6 34  1  0  0  0  0
  7  8  2  0  0  0  0
  7 35  1  0  0  0  0
  8  9  1  0  0  0  0
  8 36  1  0  0  0  0
  9 10  2  0  0  0  0
  9 29  1  0  0  0  0
 10 11  1  0  0  0  0
 11 12  2  0  0  0  0
 11 37  1  0  0  0  0
 12 13  1  0  0  0  0
 13 14  1  0  0  0  0
 13 29  1  0  0  0  0
 14 15  1  0  0  0  0
 14 38  1  0  0  0  0
 14 39  1  0  0  0  0
 15 16  2  0  0  0  0
 15 20  1  0  0  0  0
 16 17  1  0  0  0  0
 16 40  1  0  0  0  0
 17 18  2  0  0  0  0
 17 41  1  0  0  0  0
 18 19  1  0  0  0  0
 18 42  1  0  0  0  0
 19 20  2  0  0  0  0
 19 43  1  0  0  0  0
 20 21  1  0  0  0  0
 21 22  1  0  0  0  0
 22 23  1  0  0  0  0
 22 44  1  0  0  0  0
 22 45  1  0  0  0  0
 23 24  2  0  0  0  0
 23 28  1  0  0  0  0
 24 25  1  0  0  0  0
 24 46  1  0  0  0  0
 25 26  2  0  0  0  0
 25 47  1  0  0  0  0
 26 27  1  0  0  0  0
 26 48  1  0  0  0  0
 27 28  2  0  0  0  0
 27 49  1  0  0  0  0
 28 50  1  0  0  0  0
 29 30  2  0  0  0  0
M  END
$$$$
