
 OpenBabel01122422353D

 49 52  0  0  0  0  0  0  0  0999 V2000
    3.0167   -0.2868    1.0586 O   0  0  0  0  0  0  0  0  0  0  0  0
    2.4306   -0.0675    0.0073 C   0  0  0  0  0  0  0  0  0  0  0  0
    1.0646   -0.0403   -0.1223 N   0  0  0  0  0  0  0  0  0  0  0  0
    0.2062   -0.1807    1.0357 C   0  0  0  0  0  0  0  0  0  0  0  0
   -1.1357   -0.7448    0.6624 C   0  0  0  0  0  0  0  0  0  0  0  0
   -1.2447   -2.0075    0.0721 C   0  0  0  0  0  0  0  0  0  0  0  0
   -2.5001   -2.5405   -0.2143 C   0  0  0  0  0  0  0  0  0  0  0  0
   -3.6297   -1.7903    0.1008 C   0  0  0  0  0  0  0  0  0  0  0  0
   -4.9134   -2.3420   -0.1551 N   0  0  0  0  0  0  0  0  0  0  0  0
   -6.1317   -1.7451    0.0658 C   0  0  0  0  0  0  0  0  0  0  0  0
   -7.1112   -2.5663   -0.2477 N   0  0  0  0  0  0  0  0  0  0  0  0
   -6.4418   -3.6757   -0.6696 C   0  0  0  0  0  0  0  0  0  0  0  0
   -5.1094   -3.5931   -0.6517 N   0  0  0  0  0  0  0  0  0  0  0  0
   -3.5575   -0.5533    0.6641 N   0  0  0  0  0  0  0  0  0  0  0  0
   -2.3205   -0.0704    0.9395 C   0  0  0  0  0  0  0  0  0  0  0  0
    3.0511    0.2005   -1.1835 N   0  0  0  0  0  0  0  0  0  0  0  0
    4.4997    0.1496   -1.2930 C   0  0  0  0  0  0  0  0  0  0  0  0
    5.0136   -1.2445   -1.5937 C   0  0  0  0  0  0  0  0  0  0  0  0
    5.9483   -1.8344   -0.7497 C   0  0  0  0  0  0  0  0  0  0  0  0
    6.3229   -3.1575   -0.9737 C   0  0  0  0  0  0  0  0  0  0  0  0
    7.1545   -3.8770   -0.1415 O   0  0  0  0  0  0  0  0  0  0  0  0
    7.1455   -3.6076    1.2106 C   0  0  0  0  0  0  0  0  0  0  0  0
    5.9959   -3.2341    1.9222 C   0  0  0  0  0  0  0  0  0  0  0  0
    6.0889   -2.8660    3.2647 C   0  0  0  0  0  0  0  0  0  0  0  0
    7.3160   -2.9494    3.9110 C   0  0  0  0  0  0  0  0  0  0  0  0
    7.4078   -2.5786    5.1949 F   0  0  0  0  0  0  0  0  0  0  0  0
    8.4384   -3.4108    3.2313 C   0  0  0  0  0  0  0  0  0  0  0  0
    9.6113   -3.5225    3.8701 F   0  0  0  0  0  0  0  0  0  0  0  0
    8.3629   -3.7431    1.8819 C   0  0  0  0  0  0  0  0  0  0  0  0
    5.8644   -3.8094   -2.1100 C   0  0  0  0  0  0  0  0  0  0  0  0
    4.9834   -3.1323   -2.9341 C   0  0  0  0  0  0  0  0  0  0  0  0
    4.5288   -1.8798   -2.6929 N   0  0  0  0  0  0  0  0  0  0  0  0
    0.7140    0.5194   -0.8857 H   0  0  0  0  0  0  0  0  0  0  0  0
    0.1046    0.8139    1.4854 H   0  0  0  0  0  0  0  0  0  0  0  0
    0.6785   -0.8290    1.7831 H   0  0  0  0  0  0  0  0  0  0  0  0
   -0.3517   -2.5852   -0.1564 H   0  0  0  0  0  0  0  0  0  0  0  0
   -2.5776   -3.5263   -0.6636 H   0  0  0  0  0  0  0  0  0  0  0  0
   -6.2228   -0.7368    0.4476 H   0  0  0  0  0  0  0  0  0  0  0  0
   -6.9439   -4.5744   -1.0008 H   0  0  0  0  0  0  0  0  0  0  0  0
   -2.3158    0.9086    1.4138 H   0  0  0  0  0  0  0  0  0  0  0  0
    2.5590   -0.1079   -2.0095 H   0  0  0  0  0  0  0  0  0  0  0  0
    4.9425    0.5400   -0.3697 H   0  0  0  0  0  0  0  0  0  0  0  0
    4.7892    0.8133   -2.1142 H   0  0  0  0  0  0  0  0  0  0  0  0
    6.3353   -1.2731    0.0952 H   0  0  0  0  0  0  0  0  0  0  0  0
    5.0252   -3.1831    1.4339 H   0  0  0  0  0  0  0  0  0  0  0  0
    5.2149   -2.5059    3.7987 H   0  0  0  0  0  0  0  0  0  0  0  0
    9.2525   -4.0859    1.3631 H   0  0  0  0  0  0  0  0  0  0  0  0
    6.1777   -4.8218   -2.3414 H   0  0  0  0  0  0  0  0  0  0  0  0
    4.5977   -3.5992   -3.8365 H   0  0  0  0  0  0  0  0  0  0  0  0
  1  2  2  0  0  0  0
  2  3  1  0  0  0  0
  2 16  1  0  0  0  0
  3  4  1  0  0  0  0
  3 33  1  0  0  0  0
  4  5  1  0  0  0  0
  4 34  1  0  0  0  0
  4 35  1  0  0  0  0
  5  6  2  0  0  0  0
  5 15  1  0  0  0  0
  6  7  1  0  0  0  0
  6 36  1  0  0  0  0
  7  8  2  0  0  0  0
  7 37  1  0  0  0  0
  8  9  1  0  0  0  0
  8 14  1  0  0  0  0
  9 10  1  0  0  0  0
  9 13  1  0  0  0  0
 10 11  2  0  0  0  0
 10 38  1  0  0  0  0
 11 12  1  0  0  0  0
 12 13  2  0  0  0  0
 12 39  1  0  0  0  0
 14 15  2  0  0  0  0
 15 40  1  0  0  0  0
 16 17  1  0  0  0  0
 16 41  1  0  0  0  0
 17 18  1  0  0  0  0
 17 42  1  0  0  0  0
 17 43  1  0  0  0  0
 18 19  2  0  0  0  0
 18 32  1  0  0  0  0
 19 20  1  0  0  0  0
 19 44  1  0  0  0  0
 20 21  1  0  0  0  0
 20 30  2  0  0  0  0
 21 22  1  0  0  0  0
 22 23  2  0  0  0  0
 22 29  1  0  0  0  0
 23 24  1  0  0  0  0
 23 45  1  0  0  0  0
 24 25  2  0  0  0  0
 24 46  1  0  0  0  0
 25 26  1  0  0  0  0
 25 27  1  0  0  0  0
 27 28  1  0  0  0  0
 27 29  2  0  0  0  0
 29 47  1  0  0  0  0
 30 31  1  0  0  0  0
 30 48  1  0  0  0  0
 31 32  2  0  0  0  0
 31 49  1  0  0  0  0
M  END
$$$$
