
 OpenBabel01122422363D

 49 52  0  0  0  0  0  0  0  0999 V2000
    2.6395    1.1127   -0.8163 O   0  0  0  0  0  0  0  0  0  0  0  0
    2.3265    0.3767    0.1416 C   0  0  0  0  0  0  0  0  0  0  0  0
    0.8564    0.0763    0.4410 C   0  0  0  0  0  0  0  0  0  0  0  0
    0.3457   -1.1644   -0.2449 C   0  0  0  0  0  0  0  0  0  0  0  0
   -0.2662   -2.1847    0.4916 C   0  0  0  0  0  0  0  0  0  0  0  0
   -0.7791   -3.3017   -0.1648 C   0  0  0  0  0  0  0  0  0  0  0  0
   -0.6694   -3.3608   -1.5434 C   0  0  0  0  0  0  0  0  0  0  0  0
   -0.0957   -2.3945   -2.2879 N   0  0  0  0  0  0  0  0  0  0  0  0
    0.3951   -1.3204   -1.6290 C   0  0  0  0  0  0  0  0  0  0  0  0
    3.2042   -0.2227    1.0154 N   0  0  0  0  0  0  0  0  0  0  0  0
    4.6043   -0.0933    1.0615 C   0  0  0  0  0  0  0  0  0  0  0  0
    5.3404    0.8492    0.3343 C   0  0  0  0  0  0  0  0  0  0  0  0
    6.7479    0.8931    0.4294 C   0  0  0  0  0  0  0  0  0  0  0  0
    7.4261   -0.0084    1.2581 C   0  0  0  0  0  0  0  0  0  0  0  0
    8.8991   -0.0479    1.4433 C   0  0  0  0  0  0  0  0  0  0  0  0
    9.3647   -0.5643    2.4566 O   0  0  0  0  0  0  0  0  0  0  0  0
    9.7139    0.4509    0.4408 N   0  0  0  0  0  0  0  0  0  0  0  0
   11.1360    0.2064    0.5472 C   0  0  0  0  0  0  0  0  0  0  0  0
   11.8517    0.8901   -0.5600 C   0  0  0  0  0  0  0  0  0  0  0  0
   12.5773    2.0630   -0.4500 C   0  0  0  0  0  0  0  0  0  0  0  0
   13.1624    2.2896   -1.6629 N   0  0  0  0  0  0  0  0  0  0  0  0
   12.4678    1.5918   -2.6198 C   0  0  0  0  0  0  0  0  0  0  0  0
   12.3427    1.7922   -3.9968 C   0  0  0  0  0  0  0  0  0  0  0  0
   11.6626    0.8066   -4.7138 C   0  0  0  0  0  0  0  0  0  0  0  0
   11.2548   -0.3666   -4.0869 C   0  0  0  0  0  0  0  0  0  0  0  0
   10.6968   -1.3369   -4.8236 F   0  0  0  0  0  0  0  0  0  0  0  0
   11.3605   -0.5414   -2.7060 C   0  0  0  0  0  0  0  0  0  0  0  0
   11.8722    0.5251   -1.9462 C   0  0  0  0  0  0  0  0  0  0  0  0
    6.6759   -0.9318    1.9971 C   0  0  0  0  0  0  0  0  0  0  0  0
    5.2848   -0.9711    1.9033 C   0  0  0  0  0  0  0  0  0  0  0  0
    0.2612    0.9437    0.0915 H   0  0  0  0  0  0  0  0  0  0  0  0
    0.7269    0.0230    1.5126 H   0  0  0  0  0  0  0  0  0  0  0  0
   -0.3626   -2.1156    1.5708 H   0  0  0  0  0  0  0  0  0  0  0  0
   -1.2611   -4.1031    0.3840 H   0  0  0  0  0  0  0  0  0  0  0  0
   -1.0567   -4.2092   -2.1015 H   0  0  0  0  0  0  0  0  0  0  0  0
    0.8330   -0.5584   -2.2703 H   0  0  0  0  0  0  0  0  0  0  0  0
    2.7970   -0.9139    1.6400 H   0  0  0  0  0  0  0  0  0  0  0  0
    4.8502    1.5773   -0.3041 H   0  0  0  0  0  0  0  0  0  0  0  0
    7.2862    1.6547   -0.1291 H   0  0  0  0  0  0  0  0  0  0  0  0
    9.3310    0.7256   -0.4513 H   0  0  0  0  0  0  0  0  0  0  0  0
   11.3132   -0.8730    0.5214 H   0  0  0  0  0  0  0  0  0  0  0  0
   11.4823    0.5808    1.5188 H   0  0  0  0  0  0  0  0  0  0  0  0
   12.7694    2.7095    0.3966 H   0  0  0  0  0  0  0  0  0  0  0  0
   13.9386    2.9148   -1.8396 H   0  0  0  0  0  0  0  0  0  0  0  0
   12.7010    2.6970   -4.4763 H   0  0  0  0  0  0  0  0  0  0  0  0
   11.4615    0.9413   -5.7725 H   0  0  0  0  0  0  0  0  0  0  0  0
   11.0009   -1.4546   -2.2452 H   0  0  0  0  0  0  0  0  0  0  0  0
    7.1832   -1.6421    2.6536 H   0  0  0  0  0  0  0  0  0  0  0  0
    4.7500   -1.7127    2.4960 H   0  0  0  0  0  0  0  0  0  0  0  0
  1  2  2  0  0  0  0
  2  3  1  0  0  0  0
  2 10  1  0  0  0  0
  3  4  1  0  0  0  0
  3 31  1  0  0  0  0
  3 32  1  0  0  0  0
  4  5  2  0  0  0  0
  4  9  1  0  0  0  0
  5  6  1  0  0  0  0
  5 33  1  0  0  0  0
  6  7  2  0  0  0  0
  6 34  1  0  0  0  0
  7  8  1  0  0  0  0
  7 35  1  0  0  0  0
  8  9  2  0  0  0  0
  9 36  1  0  0  0  0
 10 11  1  0  0  0  0
 10 37  1  0  0  0  0
 11 12  2  0  0  0  0
 11 30  1  0  0  0  0
 12 13  1  0  0  0  0
 12 38  1  0  0  0  0
 13 14  2  0  0  0  0
 13 39  1  0  0  0  0
 14 15  1  0  0  0  0
 14 29  1  0  0  0  0
 15 16  2  0  0  0  0
 15 17  1  0  0  0  0
 17 18  1  0  0  0  0
 17 40  1  0  0  0  0
 18 19  1  0  0  0  0
 18 41  1  0  0  0  0
 18 42  1  0  0  0  0
 19 20  2  0  0  0  0
 19 28  1  0  0  0  0
 20 21  1  0  0  0  0
 20 43  1  0  0  0  0
 21 22  1  0  0  0  0
 21 44  1  0  0  0  0
 22 23  2  0  0  0  0
 22 28  1  0  0  0  0
 23 24  1  0  0  0  0
 23 45  1  0  0  0  0
 24 25  2  0  0  0  0
 24 46  1  0  0  0  0
 25 26  1  0  0  0  0
 25 27  1  0  0  0  0
 27 28  2  0  0  0  0
 27 47  1  0  0  0  0
 29 30  2  0  0  0  0
 29 48  1  0  0  0  0
 30 49  1  0  0  0  0
M  END
$$$$
