
 OpenBabel01122422363D

 51 54  0  0  0  0  0  0  0  0999 V2000
    0.5868   -1.0806    2.3917 C   0  0  0  0  0  0  0  0  0  0  0  0
    0.1161   -0.4605    1.1049 C   0  0  0  0  0  0  0  0  0  0  0  0
   -0.6205    0.7421    1.1617 C   0  0  0  0  0  0  0  0  0  0  0  0
   -1.1363    1.3434    0.0021 C   0  0  0  0  0  0  0  0  0  0  0  0
   -1.8958    2.6413    0.0646 C   0  0  0  0  0  0  0  0  0  0  0  0
   -1.0244    3.7868    0.0092 N   0  0  0  0  0  0  0  0  0  0  0  0
   -1.5333    5.0656   -0.0202 C   0  0  0  0  0  0  0  0  0  0  0  0
   -2.7361    5.3109   -0.0225 O   0  0  0  0  0  0  0  0  0  0  0  0
   -0.5180    6.1109   -0.0348 C   0  0  0  0  0  0  0  0  0  0  0  0
   -0.7146    7.4741   -0.0122 C   0  0  0  0  0  0  0  0  0  0  0  0
    0.5477    7.9936   -0.0211 N   0  0  0  0  0  0  0  0  0  0  0  0
    0.9500    9.3865    0.0773 C   0  0  0  0  0  0  0  0  0  0  0  0
    1.0391   10.0308   -1.2742 C   0  0  0  0  0  0  0  0  0  0  0  0
   -0.0384   10.7281   -1.8304 C   0  0  0  0  0  0  0  0  0  0  0  0
    0.0745   11.2668   -3.1100 C   0  0  0  0  0  0  0  0  0  0  0  0
    1.2674   11.0963   -3.7912 C   0  0  0  0  0  0  0  0  0  0  0  0
    2.3341   10.4465   -3.2801 N   0  0  0  0  0  0  0  0  0  0  0  0
    2.1950    9.9227   -2.0407 C   0  0  0  0  0  0  0  0  0  0  0  0
    1.4744    7.0166   -0.0408 N   0  0  0  0  0  0  0  0  0  0  0  0
    0.8348    5.8572   -0.0574 N   0  0  0  0  0  0  0  0  0  0  0  0
   -0.9436    0.7048   -1.2238 C   0  0  0  0  0  0  0  0  0  0  0  0
   -0.2620   -0.5088   -1.2849 C   0  0  0  0  0  0  0  0  0  0  0  0
    0.3294   -1.0668   -0.1430 C   0  0  0  0  0  0  0  0  0  0  0  0
    1.1099   -2.2157   -0.2055 O   0  0  0  0  0  0  0  0  0  0  0  0
    1.7817   -2.4695   -1.3900 C   0  0  0  0  0  0  0  0  0  0  0  0
    2.4679   -1.4694   -2.0914 C   0  0  0  0  0  0  0  0  0  0  0  0
    2.9721   -1.7285   -3.3659 C   0  0  0  0  0  0  0  0  0  0  0  0
    2.8627   -3.0079   -3.8934 C   0  0  0  0  0  0  0  0  0  0  0  0
    3.3179   -3.2502   -5.1314 F   0  0  0  0  0  0  0  0  0  0  0  0
    2.2775   -4.0372   -3.1636 C   0  0  0  0  0  0  0  0  0  0  0  0
    1.7339   -3.7719   -1.9025 C   0  0  0  0  0  0  0  0  0  0  0  0
    0.5582   -0.3539    3.2123 H   0  0  0  0  0  0  0  0  0  0  0  0
    1.6184   -1.4345    2.3124 H   0  0  0  0  0  0  0  0  0  0  0  0
   -0.0662   -1.9162    2.6656 H   0  0  0  0  0  0  0  0  0  0  0  0
   -0.7994    1.2169    2.1258 H   0  0  0  0  0  0  0  0  0  0  0  0
   -2.4868    2.6946    0.9859 H   0  0  0  0  0  0  0  0  0  0  0  0
   -2.6083    2.7077   -0.7671 H   0  0  0  0  0  0  0  0  0  0  0  0
   -0.0174    3.6681    0.0450 H   0  0  0  0  0  0  0  0  0  0  0  0
   -1.6058    8.0822    0.0161 H   0  0  0  0  0  0  0  0  0  0  0  0
    1.9123    9.4282    0.6003 H   0  0  0  0  0  0  0  0  0  0  0  0
    0.2171    9.8985    0.7122 H   0  0  0  0  0  0  0  0  0  0  0  0
   -0.9693   10.8508   -1.2828 H   0  0  0  0  0  0  0  0  0  0  0  0
   -0.7513   11.7988   -3.5696 H   0  0  0  0  0  0  0  0  0  0  0  0
    1.3995   11.4845   -4.7972 H   0  0  0  0  0  0  0  0  0  0  0  0
    3.0733    9.3940   -1.6756 H   0  0  0  0  0  0  0  0  0  0  0  0
   -1.3302    1.1410   -2.1432 H   0  0  0  0  0  0  0  0  0  0  0  0
   -0.1765   -0.9939   -2.2551 H   0  0  0  0  0  0  0  0  0  0  0  0
    2.5522   -0.4666   -1.6802 H   0  0  0  0  0  0  0  0  0  0  0  0
    3.4240   -0.9367   -3.9534 H   0  0  0  0  0  0  0  0  0  0  0  0
    2.2289   -5.0341   -3.5921 H   0  0  0  0  0  0  0  0  0  0  0  0
    1.2485   -4.5654   -1.3430 H   0  0  0  0  0  0  0  0  0  0  0  0
  1  2  1  0  0  0  0
  1 32  1  0  0  0  0
  1 33  1  0  0  0  0
  1 34  1  0  0  0  0
  2  3  2  0  0  0  0
  2 23  1  0  0  0  0
  3  4  1  0  0  0  0
  3 35  1  0  0  0  0
  4  5  1  0  0  0  0
  4 21  2  0  0  0  0
  5  6  1  0  0  0  0
  5 36  1  0  0  0  0
  5 37  1  0  0  0  0
  6  7  1  0  0  0  0
  6 38  1  0  0  0  0
  7  8  2  0  0  0  0
  7  9  1  0  0  0  0
  9 10  2  0  0  0  0
  9 20  1  0  0  0  0
 10 11  1  0  0  0  0
 10 39  1  0  0  0  0
 11 12  1  0  0  0  0
 11 19  1  0  0  0  0
 12 13  1  0  0  0  0
 12 40  1  0  0  0  0
 12 41  1  0  0  0  0
 13 14  2  0  0  0  0
 13 18  1  0  0  0  0
 14 15  1  0  0  0  0
 14 42  1  0  0  0  0
 15 16  2  0  0  0  0
 15 43  1  0  0  0  0
 16 17  1  0  0  0  0
 16 44  1  0  0  0  0
 17 18  2  0  0  0  0
 18 45  1  0  0  0  0
 19 20  2  0  0  0  0
 21 22  1  0  0  0  0
 21 46  1  0  0  0  0
 22 23  2  0  0  0  0
 22 47  1  0  0  0  0
 23 24  1  0  0  0  0
 24 25  1  0  0  0  0
 25 26  2  0  0  0  0
 25 31  1  0  0  0  0
 26 27  1  0  0  0  0
 26 48  1  0  0  0  0
 27 28  2  0  0  0  0
 27 49  1  0  0  0  0
 28 29  1  0  0  0  0
 28 30  1  0  0  0  0
 30 31  2  0  0  0  0
 30 50  1  0  0  0  0
 31 51  1  0  0  0  0
M  END
$$$$
