
 OpenBabel01122422363D

 53 56  0  0  0  0  0  0  0  0999 V2000
    3.4002   -3.9212    4.2205 C   0  0  0  0  0  0  0  0  0  0  0  0
    2.3569   -2.9269    3.7381 C   0  0  0  0  0  0  0  0  0  0  0  0
    2.9019   -1.9742    2.7310 C   0  0  0  0  0  0  0  0  0  0  0  0
    2.9135   -2.0271    1.3414 C   0  0  0  0  0  0  0  0  0  0  0  0
    2.4062   -3.0718    0.4523 C   0  0  0  0  0  0  0  0  0  0  0  0
    2.1894   -4.2211    0.8143 O   0  0  0  0  0  0  0  0  0  0  0  0
    2.1774   -2.6222   -0.8343 N   0  0  0  0  0  0  0  0  0  0  0  0
    1.6495   -3.4674   -1.8771 C   0  0  0  0  0  0  0  0  0  0  0  0
    2.0283   -2.9575   -3.2490 C   0  0  0  0  0  0  0  0  0  0  0  0
    3.3769   -2.7735   -3.5805 C   0  0  0  0  0  0  0  0  0  0  0  0
    3.7354   -2.3400   -4.8517 C   0  0  0  0  0  0  0  0  0  0  0  0
    2.7556   -2.1088   -5.8196 C   0  0  0  0  0  0  0  0  0  0  0  0
    1.3904   -2.3229   -5.5489 C   0  0  0  0  0  0  0  0  0  0  0  0
    0.3684   -2.1946   -6.6153 C   0  0  0  0  0  0  0  0  0  0  0  0
    0.6404   -2.5430   -7.9495 C   0  0  0  0  0  0  0  0  0  0  0  0
   -0.3532   -2.4836   -8.9276 C   0  0  0  0  0  0  0  0  0  0  0  0
   -1.6173   -2.0721   -8.5515 C   0  0  0  0  0  0  0  0  0  0  0  0
   -1.9336   -1.7040   -7.2939 N   0  0  0  0  0  0  0  0  0  0  0  0
   -0.9400   -1.7696   -6.3692 C   0  0  0  0  0  0  0  0  0  0  0  0
    1.0517   -2.7279   -4.2381 C   0  0  0  0  0  0  0  0  0  0  0  0
    3.4767   -0.8703    0.8546 N   0  0  0  0  0  0  0  0  0  0  0  0
    3.8236   -0.1102    1.8786 N   0  0  0  0  0  0  0  0  0  0  0  0
    3.4856   -0.7580    3.0130 N   0  0  0  0  0  0  0  0  0  0  0  0
    3.6328   -0.0549    4.2825 C   0  0  0  0  0  0  0  0  0  0  0  0
    4.9269   -0.3777    4.9938 C   0  0  0  0  0  0  0  0  0  0  0  0
    6.1701   -0.1596    4.3741 C   0  0  0  0  0  0  0  0  0  0  0  0
    7.3577   -0.5044    5.0230 C   0  0  0  0  0  0  0  0  0  0  0  0
    7.3089   -1.0447    6.3009 C   0  0  0  0  0  0  0  0  0  0  0  0
    8.4452   -1.4083    6.9096 F   0  0  0  0  0  0  0  0  0  0  0  0
    6.0963   -1.2138    6.9571 C   0  0  0  0  0  0  0  0  0  0  0  0
    4.9066   -0.8729    6.3093 C   0  0  0  0  0  0  0  0  0  0  0  0
    2.9378   -4.6631    4.8793 H   0  0  0  0  0  0  0  0  0  0  0  0
    4.1947   -3.4231    4.7833 H   0  0  0  0  0  0  0  0  0  0  0  0
    3.8646   -4.4536    3.3837 H   0  0  0  0  0  0  0  0  0  0  0  0
    1.9376   -2.3910    4.5967 H   0  0  0  0  0  0  0  0  0  0  0  0
    1.5183   -3.4807    3.2978 H   0  0  0  0  0  0  0  0  0  0  0  0
    2.2409   -1.6234   -0.9917 H   0  0  0  0  0  0  0  0  0  0  0  0
    0.5611   -3.4914   -1.7554 H   0  0  0  0  0  0  0  0  0  0  0  0
    2.0183   -4.4918   -1.7525 H   0  0  0  0  0  0  0  0  0  0  0  0
    4.1543   -2.9754   -2.8458 H   0  0  0  0  0  0  0  0  0  0  0  0
    4.7859   -2.1953   -5.1004 H   0  0  0  0  0  0  0  0  0  0  0  0
    3.0779   -1.7714   -6.8015 H   0  0  0  0  0  0  0  0  0  0  0  0
    1.6267   -2.8939   -8.2421 H   0  0  0  0  0  0  0  0  0  0  0  0
   -0.1435   -2.7671   -9.9531 H   0  0  0  0  0  0  0  0  0  0  0  0
   -2.4305   -2.0287   -9.2703 H   0  0  0  0  0  0  0  0  0  0  0  0
   -1.2528   -1.4518   -5.3778 H   0  0  0  0  0  0  0  0  0  0  0  0
    0.0080   -2.9084   -3.9858 H   0  0  0  0  0  0  0  0  0  0  0  0
    2.7623   -0.3046    4.8974 H   0  0  0  0  0  0  0  0  0  0  0  0
    3.5818    1.0219    4.0788 H   0  0  0  0  0  0  0  0  0  0  0  0
    6.2239    0.2696    3.3739 H   0  0  0  0  0  0  0  0  0  0  0  0
    8.3173   -0.3629    4.5354 H   0  0  0  0  0  0  0  0  0  0  0  0
    6.0857   -1.6178    7.9647 H   0  0  0  0  0  0  0  0  0  0  0  0
    3.9656   -1.0087    6.8384 H   0  0  0  0  0  0  0  0  0  0  0  0
  1  2  1  0  0  0  0
  1 32  1  0  0  0  0
  1 33  1  0  0  0  0
  1 34  1  0  0  0  0
  2  3  1  0  0  0  0
  2 35  1  0  0  0  0
  2 36  1  0  0  0  0
  3  4  2  0  0  0  0
  3 23  1  0  0  0  0
  4  5  1  0  0  0  0
  4 21  1  0  0  0  0
  5  6  2  0  0  0  0
  5  7  1  0  0  0  0
  7  8  1  0  0  0  0
  7 37  1  0  0  0  0
  8  9  1  0  0  0  0
  8 38  1  0  0  0  0
  8 39  1  0  0  0  0
  9 10  2  0  0  0  0
  9 20  1  0  0  0  0
 10 11  1  0  0  0  0
 10 40  1  0  0  0  0
 11 12  2  0  0  0  0
 11 41  1  0  0  0  0
 12 13  1  0  0  0  0
 12 42  1  0  0  0  0
 13 14  1  0  0  0  0
 13 20  2  0  0  0  0
 14 15  2  0  0  0  0
 14 19  1  0  0  0  0
 15 16  1  0  0  0  0
 15 43  1  0  0  0  0
 16 17  2  0  0  0  0
 16 44  1  0  0  0  0
 17 18  1  0  0  0  0
 17 45  1  0  0  0  0
 18 19  2  0  0  0  0
 19 46  1  0  0  0  0
 20 47  1  0  0  0  0
 21 22  2  0  0  0  0
 22 23  1  0  0  0  0
 23 24  1  0  0  0  0
 24 25  1  0  0  0  0
 24 48  1  0  0  0  0
 24 49  1  0  0  0  0
 25 26  2  0  0  0  0
 25 31  1  0  0  0  0
 26 27  1  0  0  0  0
 26 50  1  0  0  0  0
 27 28  2  0  0  0  0
 27 51  1  0  0  0  0
 28 29  1  0  0  0  0
 28 30  1  0  0  0  0
 30 31  2  0  0  0  0
 30 52  1  0  0  0  0
 31 53  1  0  0  0  0
M  END
$$$$
