
 OpenBabel01122422363D

 53 56  0  0  0  0  0  0  0  0999 V2000
    1.0757   -0.1705    1.3527 C   0  0  0  0  0  0  0  0  0  0  0  0
    2.4172   -0.0962    0.6663 C   0  0  0  0  0  0  0  0  0  0  0  0
    2.9885   -1.2289    0.0495 C   0  0  0  0  0  0  0  0  0  0  0  0
    2.2928   -2.5376   -0.0951 C   0  0  0  0  0  0  0  0  0  0  0  0
    1.0885   -2.5729   -0.3092 O   0  0  0  0  0  0  0  0  0  0  0  0
    3.0640   -3.6815   -0.0039 N   0  0  0  0  0  0  0  0  0  0  0  0
    2.4601   -4.9975   -0.1061 C   0  0  0  0  0  0  0  0  0  0  0  0
    2.1999   -5.6018    1.2441 C   0  0  0  0  0  0  0  0  0  0  0  0
    0.9991   -5.3735    1.9222 C   0  0  0  0  0  0  0  0  0  0  0  0
    0.7659   -5.9633    3.1728 C   0  0  0  0  0  0  0  0  0  0  0  0
    1.7298   -6.7755    3.8017 C   0  0  0  0  0  0  0  0  0  0  0  0
    1.4871   -7.3860    5.1327 C   0  0  0  0  0  0  0  0  0  0  0  0
    2.0365   -8.6344    5.4828 C   0  0  0  0  0  0  0  0  0  0  0  0
    1.8195   -9.2044    6.7421 C   0  0  0  0  0  0  0  0  0  0  0  0
    1.0315   -8.5456    7.6793 C   0  0  0  0  0  0  0  0  0  0  0  0
    0.4693   -7.3144    7.3607 C   0  0  0  0  0  0  0  0  0  0  0  0
    0.7020   -6.7400    6.1063 C   0  0  0  0  0  0  0  0  0  0  0  0
    2.9370   -6.9772    3.1118 C   0  0  0  0  0  0  0  0  0  0  0  0
    3.1581   -6.4031    1.8597 C   0  0  0  0  0  0  0  0  0  0  0  0
    4.3264   -6.6351    1.2431 F   0  0  0  0  0  0  0  0  0  0  0  0
    4.2341   -1.0704   -0.5529 C   0  0  0  0  0  0  0  0  0  0  0  0
    4.9352    0.0894   -0.5733 N   0  0  0  0  0  0  0  0  0  0  0  0
    4.3795    1.1867    0.0018 C   0  0  0  0  0  0  0  0  0  0  0  0
    3.1364    1.1357    0.6263 C   0  0  0  0  0  0  0  0  0  0  0  0
    2.6181    2.3964    1.2113 C   0  0  0  0  0  0  0  0  0  0  0  0
    1.5303    2.4202    1.7795 O   0  0  0  0  0  0  0  0  0  0  0  0
    3.4059    3.5308    1.0909 N   0  0  0  0  0  0  0  0  0  0  0  0
    2.9157    4.7767    1.6579 C   0  0  0  0  0  0  0  0  0  0  0  0
    4.6435    3.5742    0.4704 C   0  0  0  0  0  0  0  0  0  0  0  0
    5.2897    4.6242    0.4094 O   0  0  0  0  0  0  0  0  0  0  0  0
    5.1070    2.3960   -0.0638 N   0  0  0  0  0  0  0  0  0  0  0  0
    6.3961    2.3741   -0.7437 C   0  0  0  0  0  0  0  0  0  0  0  0
    0.6507   -1.1717    1.4086 H   0  0  0  0  0  0  0  0  0  0  0  0
    0.3516    0.4598    0.8256 H   0  0  0  0  0  0  0  0  0  0  0  0
    1.1727    0.1474    2.3958 H   0  0  0  0  0  0  0  0  0  0  0  0
    4.0343   -3.6451    0.2774 H   0  0  0  0  0  0  0  0  0  0  0  0
    3.1437   -5.6309   -0.6828 H   0  0  0  0  0  0  0  0  0  0  0  0
    1.5262   -4.9471   -0.6783 H   0  0  0  0  0  0  0  0  0  0  0  0
    0.2304   -4.7412    1.4785 H   0  0  0  0  0  0  0  0  0  0  0  0
   -0.1985   -5.7841    3.6459 H   0  0  0  0  0  0  0  0  0  0  0  0
    2.6393   -9.1942    4.7711 H   0  0  0  0  0  0  0  0  0  0  0  0
    2.2649  -10.1657    6.9854 H   0  0  0  0  0  0  0  0  0  0  0  0
    0.8563   -8.9900    8.6552 H   0  0  0  0  0  0  0  0  0  0  0  0
   -0.1481   -6.7936    8.0880 H   0  0  0  0  0  0  0  0  0  0  0  0
    0.2652   -5.7640    5.9068 H   0  0  0  0  0  0  0  0  0  0  0  0
    3.7355   -7.5773    3.5384 H   0  0  0  0  0  0  0  0  0  0  0  0
    4.7153   -1.8851   -1.0847 H   0  0  0  0  0  0  0  0  0  0  0  0
    1.9370    4.6698    2.1338 H   0  0  0  0  0  0  0  0  0  0  0  0
    2.8407    5.5235    0.8610 H   0  0  0  0  0  0  0  0  0  0  0  0
    3.6328    5.1341    2.4046 H   0  0  0  0  0  0  0  0  0  0  0  0
    6.8763    3.3568   -0.7370 H   0  0  0  0  0  0  0  0  0  0  0  0
    6.2555    2.0779   -1.7887 H   0  0  0  0  0  0  0  0  0  0  0  0
    7.0658    1.6704   -0.2384 H   0  0  0  0  0  0  0  0  0  0  0  0
  1  2  1  0  0  0  0
  1 33  1  0  0  0  0
  1 34  1  0  0  0  0
  1 35  1  0  0  0  0
  2  3  2  0  0  0  0
  2 24  1  0  0  0  0
  3  4  1  0  0  0  0
  3 21  1  0  0  0  0
  4  5  2  0  0  0  0
  4  6  1  0  0  0  0
  6  7  1  0  0  0  0
  6 36  1  0  0  0  0
  7  8  1  0  0  0  0
  7 37  1  0  0  0  0
  7 38  1  0  0  0  0
  8  9  2  0  0  0  0
  8 19  1  0  0  0  0
  9 10  1  0  0  0  0
  9 39  1  0  0  0  0
 10 11  2  0  0  0  0
 10 40  1  0  0  0  0
 11 12  1  0  0  0  0
 11 18  1  0  0  0  0
 12 13  2  0  0  0  0
 12 17  1  0  0  0  0
 13 14  1  0  0  0  0
 13 41  1  0  0  0  0
 14 15  2  0  0  0  0
 14 42  1  0  0  0  0
 15 16  1  0  0  0  0
 15 43  1  0  0  0  0
 16 17  2  0  0  0  0
 16 44  1  0  0  0  0
 17 45  1  0  0  0  0
 18 19  2  0  0  0  0
 18 46  1  0  0  0  0
 19 20  1  0  0  0  0
 21 22  2  0  0  0  0
 21 47  1  0  0  0  0
 22 23  1  0  0  0  0
 23 24  2  0  0  0  0
 23 31  1  0  0  0  0
 24 25  1  0  0  0  0
 25 26  2  0  0  0  0
 25 27  1  0  0  0  0
 27 28  1  0  0  0  0
 27 29  1  0  0  0  0
 28 48  1  0  0  0  0
 28 49  1  0  0  0  0
 28 50  1  0  0  0  0
 29 30  2  0  0  0  0
 29 31  1  0  0  0  0
 31 32  1  0  0  0  0
 32 51  1  0  0  0  0
 32 52  1  0  0  0  0
 32 53  1  0  0  0  0
M  END
$$$$
