
 OpenBabel01122422363D

 45 48  0  0  0  0  0  0  0  0999 V2000
    1.2438   -0.7032   -0.6333 C   0  0  0  0  0  0  0  0  0  0  0  0
    2.4057   -0.0890   -0.0968 O   0  0  0  0  0  0  0  0  0  0  0  0
    3.1029   -0.7378    0.8920 C   0  0  0  0  0  0  0  0  0  0  0  0
    2.8051   -2.0453    1.3070 C   0  0  0  0  0  0  0  0  0  0  0  0
    3.5790   -2.6828    2.2798 C   0  0  0  0  0  0  0  0  0  0  0  0
    4.6756   -2.0244    2.8333 C   0  0  0  0  0  0  0  0  0  0  0  0
    5.4516   -2.6478    3.9405 C   0  0  0  0  0  0  0  0  0  0  0  0
    5.8690   -1.9388    4.8484 O   0  0  0  0  0  0  0  0  0  0  0  0
    5.6863   -4.0040    3.8294 N   0  0  0  0  0  0  0  0  0  0  0  0
    6.3858   -4.6903    4.7987 C   0  0  0  0  0  0  0  0  0  0  0  0
    7.1827   -5.7110    4.4787 N   0  0  0  0  0  0  0  0  0  0  0  0
    7.7834   -5.9862    5.6730 N   0  0  0  0  0  0  0  0  0  0  0  0
    8.9490   -6.7935    5.7700 C   0  0  0  0  0  0  0  0  0  0  0  0
    9.6201   -7.2034    4.6065 C   0  0  0  0  0  0  0  0  0  0  0  0
   10.7923   -7.9568    4.7094 C   0  0  0  0  0  0  0  0  0  0  0  0
   11.2778   -8.3087    5.9645 C   0  0  0  0  0  0  0  0  0  0  0  0
   12.3984   -9.0364    6.0575 F   0  0  0  0  0  0  0  0  0  0  0  0
   10.6208   -7.9130    7.1244 C   0  0  0  0  0  0  0  0  0  0  0  0
    9.4578   -7.1450    7.0317 C   0  0  0  0  0  0  0  0  0  0  0  0
    7.2326   -5.3896    6.7635 N   0  0  0  0  0  0  0  0  0  0  0  0
    6.4030   -4.5098    6.1958 C   0  0  0  0  0  0  0  0  0  0  0  0
    4.9734   -0.7127    2.4304 C   0  0  0  0  0  0  0  0  0  0  0  0
    4.1794   -0.0254    1.4798 C   0  0  0  0  0  0  0  0  0  0  0  0
    4.4645    1.4036    1.1850 C   0  0  0  0  0  0  0  0  0  0  0  0
    3.4547    2.3463    0.9407 C   0  0  0  0  0  0  0  0  0  0  0  0
    3.7811    3.6802    0.7020 C   0  0  0  0  0  0  0  0  0  0  0  0
    5.1100    4.0649    0.7460 C   0  0  0  0  0  0  0  0  0  0  0  0
    6.0519    3.0901    1.0234 C   0  0  0  0  0  0  0  0  0  0  0  0
    5.7651    1.7867    1.2411 N   0  0  0  0  0  0  0  0  0  0  0  0
    0.8093   -0.0080   -1.3586 H   0  0  0  0  0  0  0  0  0  0  0  0
    0.4949   -0.8812    0.1451 H   0  0  0  0  0  0  0  0  0  0  0  0
    1.4965   -1.6252   -1.1651 H   0  0  0  0  0  0  0  0  0  0  0  0
    1.9579   -2.5896    0.9023 H   0  0  0  0  0  0  0  0  0  0  0  0
    3.2885   -3.6733    2.6205 H   0  0  0  0  0  0  0  0  0  0  0  0
    5.6688   -4.4455    2.9211 H   0  0  0  0  0  0  0  0  0  0  0  0
    9.2597   -6.9190    3.6198 H   0  0  0  0  0  0  0  0  0  0  0  0
   11.3337   -8.2641    3.8199 H   0  0  0  0  0  0  0  0  0  0  0  0
   11.0196   -8.2006    8.0924 H   0  0  0  0  0  0  0  0  0  0  0  0
    8.9573   -6.8318    7.9466 H   0  0  0  0  0  0  0  0  0  0  0  0
    5.8411   -3.8182    6.8090 H   0  0  0  0  0  0  0  0  0  0  0  0
    5.8220   -0.2003    2.8858 H   0  0  0  0  0  0  0  0  0  0  0  0
    2.4103    2.0572    0.9408 H   0  0  0  0  0  0  0  0  0  0  0  0
    2.9999    4.4023    0.4942 H   0  0  0  0  0  0  0  0  0  0  0  0
    5.4019    5.0946    0.5780 H   0  0  0  0  0  0  0  0  0  0  0  0
    7.1072    3.3477    1.0887 H   0  0  0  0  0  0  0  0  0  0  0  0
  1  2  1  0  0  0  0
  1 30  1  0  0  0  0
  1 31  1  0  0  0  0
  1 32  1  0  0  0  0
  2  3  1  0  0  0  0
  3  4  2  0  0  0  0
  3 23  1  0  0  0  0
  4  5  1  0  0  0  0
  4 33  1  0  0  0  0
  5  6  2  0  0  0  0
  5 34  1  0  0  0  0
  6  7  1  0  0  0  0
  6 22  1  0  0  0  0
  7  8  2  0  0  0  0
  7  9  1  0  0  0  0
  9 10  1  0  0  0  0
  9 35  1  0  0  0  0
 10 11  2  0  0  0  0
 10 21  1  0  0  0  0
 11 12  1  0  0  0  0
 12 13  1  0  0  0  0
 12 20  1  0  0  0  0
 13 14  2  0  0  0  0
 13 19  1  0  0  0  0
 14 15  1  0  0  0  0
 14 36  1  0  0  0  0
 15 16  2  0  0  0  0
 15 37  1  0  0  0  0
 16 17  1  0  0  0  0
 16 18  1  0  0  0  0
 18 19  2  0  0  0  0
 18 38  1  0  0  0  0
 19 39  1  0  0  0  0
 20 21  2  0  0  0  0
 21 40  1  0  0  0  0
 22 23  2  0  0  0  0
 22 41  1  0  0  0  0
 23 24  1  0  0  0  0
 24 25  2  0  0  0  0
 24 29  1  0  0  0  0
 25 26  1  0  0  0  0
 25 42  1  0  0  0  0
 26 27  2  0  0  0  0
 26 43  1  0  0  0  0
 27 28  1  0  0  0  0
 27 44  1  0  0  0  0
 28 29  2  0  0  0  0
 28 45  1  0  0  0  0
M  END
$$$$
