
 OpenBabel01122422363D

 46 49  0  0  0  0  0  0  0  0999 V2000
    0.9096   -0.0337   -0.1143 O   0  0  0  0  0  0  0  0  0  0  0  0
    2.1351    0.0171   -0.0376 C   0  0  0  0  0  0  0  0  0  0  0  0
    2.8625   -0.3331    1.0853 N   0  0  0  0  0  0  0  0  0  0  0  0
    2.3290   -0.8310    2.2648 C   0  0  0  0  0  0  0  0  0  0  0  0
    1.1061   -1.3712    2.3803 C   0  0  0  0  0  0  0  0  0  0  0  0
    0.5820   -1.8020    3.6407 C   0  0  0  0  0  0  0  0  0  0  0  0
    1.2999   -1.6299    4.7537 C   0  0  0  0  0  0  0  0  0  0  0  0
    2.5815   -1.0941    4.7238 N   0  0  0  0  0  0  0  0  0  0  0  0
    3.2746   -0.8506    5.9494 C   0  0  0  0  0  0  0  0  0  0  0  0
    2.6208   -0.1857    6.9990 C   0  0  0  0  0  0  0  0  0  0  0  0
    3.3005    0.1098    8.1803 C   0  0  0  0  0  0  0  0  0  0  0  0
    4.6232   -0.2956    8.3412 C   0  0  0  0  0  0  0  0  0  0  0  0
    5.2689   -0.9915    7.3191 C   0  0  0  0  0  0  0  0  0  0  0  0
    4.6019   -1.2545    6.1211 C   0  0  0  0  0  0  0  0  0  0  0  0
    3.1935   -0.7242    3.5067 C   0  0  0  0  0  0  0  0  0  0  0  0
    4.3297   -0.2554    3.3776 O   0  0  0  0  0  0  0  0  0  0  0  0
    2.9011    0.5144   -1.1747 C   0  0  0  0  0  0  0  0  0  0  0  0
    4.2354    0.4134   -1.3028 N   0  0  0  0  0  0  0  0  0  0  0  0
    4.5265    0.9316   -2.5638 O   0  0  0  0  0  0  0  0  0  0  0  0
    3.3767    1.3473   -3.1613 C   0  0  0  0  0  0  0  0  0  0  0  0
    3.4569    1.8924   -4.5309 C   0  0  0  0  0  0  0  0  0  0  0  0
    3.6062    3.3030   -4.4035 O   0  0  0  0  0  0  0  0  0  0  0  0
    3.6504    4.0126   -5.5726 C   0  0  0  0  0  0  0  0  0  0  0  0
    3.5267    3.4786   -6.8573 C   0  0  0  0  0  0  0  0  0  0  0  0
    3.5997    4.3143   -7.9750 C   0  0  0  0  0  0  0  0  0  0  0  0
    3.7958    5.6841   -7.8141 C   0  0  0  0  0  0  0  0  0  0  0  0
    3.9129    6.2227   -6.5352 C   0  0  0  0  0  0  0  0  0  0  0  0
    3.8384    5.3884   -5.4185 C   0  0  0  0  0  0  0  0  0  0  0  0
    2.3254    1.1235   -2.3152 C   0  0  0  0  0  0  0  0  0  0  0  0
    3.8456   -0.0596    1.1151 H   0  0  0  0  0  0  0  0  0  0  0  0
    0.4420   -1.4980    1.5326 H   0  0  0  0  0  0  0  0  0  0  0  0
   -0.4078   -2.2457    3.6669 H   0  0  0  0  0  0  0  0  0  0  0  0
    0.9120   -1.9487    5.7167 H   0  0  0  0  0  0  0  0  0  0  0  0
    1.5993    0.1673    6.8784 H   0  0  0  0  0  0  0  0  0  0  0  0
    2.8027    0.6727    8.9662 H   0  0  0  0  0  0  0  0  0  0  0  0
    5.1553   -0.0621    9.2591 H   0  0  0  0  0  0  0  0  0  0  0  0
    6.2962   -1.3200    7.4487 H   0  0  0  0  0  0  0  0  0  0  0  0
    5.1203   -1.7974    5.3340 H   0  0  0  0  0  0  0  0  0  0  0  0
    2.5183    1.6594   -5.0505 H   0  0  0  0  0  0  0  0  0  0  0  0
    4.3024    1.4525   -5.0705 H   0  0  0  0  0  0  0  0  0  0  0  0
    3.3727    2.4200   -7.0315 H   0  0  0  0  0  0  0  0  0  0  0  0
    3.5059    3.8916   -8.9715 H   0  0  0  0  0  0  0  0  0  0  0  0
    3.8568    6.3299   -8.6859 H   0  0  0  0  0  0  0  0  0  0  0  0
    4.0648    7.2909   -6.4051 H   0  0  0  0  0  0  0  0  0  0  0  0
    3.9319    5.8130   -4.4218 H   0  0  0  0  0  0  0  0  0  0  0  0
    1.2807    1.3362   -2.4897 H   0  0  0  0  0  0  0  0  0  0  0  0
  1  2  2  0  0  0  0
  2  3  1  0  0  0  0
  2 17  1  0  0  0  0
  3  4  1  0  0  0  0
  3 30  1  0  0  0  0
  4  5  2  0  0  0  0
  4 15  1  0  0  0  0
  5  6  1  0  0  0  0
  5 31  1  0  0  0  0
  6  7  2  0  0  0  0
  6 32  1  0  0  0  0
  7  8  1  0  0  0  0
  7 33  1  0  0  0  0
  8  9  1  0  0  0  0
  8 15  1  0  0  0  0
  9 10  2  0  0  0  0
  9 14  1  0  0  0  0
 10 11  1  0  0  0  0
 10 34  1  0  0  0  0
 11 12  2  0  0  0  0
 11 35  1  0  0  0  0
 12 13  1  0  0  0  0
 12 36  1  0  0  0  0
 13 14  2  0  0  0  0
 13 37  1  0  0  0  0
 14 38  1  0  0  0  0
 15 16  2  0  0  0  0
 17 18  2  0  0  0  0
 17 29  1  0  0  0  0
 18 19  1  0  0  0  0
 19 20  1  0  0  0  0
 20 21  1  0  0  0  0
 20 29  2  0  0  0  0
 21 22  1  0  0  0  0
 21 39  1  0  0  0  0
 21 40  1  0  0  0  0
 22 23  1  0  0  0  0
 23 24  2  0  0  0  0
 23 28  1  0  0  0  0
 24 25  1  0  0  0  0
 24 41  1  0  0  0  0
 25 26  2  0  0  0  0
 25 42  1  0  0  0  0
 26 27  1  0  0  0  0
 26 43  1  0  0  0  0
 27 28  2  0  0  0  0
 27 44  1  0  0  0  0
 28 45  1  0  0  0  0
 29 46  1  0  0  0  0
M  END
$$$$
