
 OpenBabel01122422363D

 48 51  0  0  0  0  0  0  0  0999 V2000
    1.7943   -0.8554   -0.5589 O   0  0  0  0  0  0  0  0  0  0  0  0
    2.8985   -0.8334   -0.0167 C   0  0  0  0  0  0  0  0  0  0  0  0
    3.4536    0.4945    0.4932 C   0  0  0  0  0  0  0  0  0  0  0  0
    4.5128    1.2076   -0.3568 C   0  0  0  0  0  0  0  0  0  0  0  0
    4.1263    1.5790   -1.7741 C   0  0  0  0  0  0  0  0  0  0  0  0
    3.6067    2.7527   -2.1941 C   0  0  0  0  0  0  0  0  0  0  0  0
    3.3276    3.0018   -3.6216 C   0  0  0  0  0  0  0  0  0  0  0  0
    2.8503    4.2264   -4.0929 C   0  0  0  0  0  0  0  0  0  0  0  0
    2.6138    4.4108   -5.4618 C   0  0  0  0  0  0  0  0  0  0  0  0
    2.8454    3.3778   -6.3702 C   0  0  0  0  0  0  0  0  0  0  0  0
    3.3326    2.1581   -5.9096 C   0  0  0  0  0  0  0  0  0  0  0  0
    3.5820    1.9900   -4.5545 C   0  0  0  0  0  0  0  0  0  0  0  0
    4.1298    0.7976   -4.0940 N   0  0  0  0  0  0  0  0  0  0  0  0
    4.5105    0.5761   -2.7995 C   0  0  0  0  0  0  0  0  0  0  0  0
    5.1499   -0.4114   -2.4474 O   0  0  0  0  0  0  0  0  0  0  0  0
    3.6821   -1.9539    0.2227 N   0  0  0  0  0  0  0  0  0  0  0  0
    3.4935   -3.2262   -0.2967 C   0  0  0  0  0  0  0  0  0  0  0  0
    2.5561   -3.5684   -1.2028 C   0  0  0  0  0  0  0  0  0  0  0  0
    2.8129   -4.6422   -2.0775 N   0  0  0  0  0  0  0  0  0  0  0  0
    3.3885   -4.2569   -3.3787 C   0  0  0  0  0  0  0  0  0  0  0  0
    4.0783   -5.1920   -4.1653 C   0  0  0  0  0  0  0  0  0  0  0  0
    5.2185   -4.8159   -4.8798 C   0  0  0  0  0  0  0  0  0  0  0  0
    5.6177   -3.4950   -4.8940 C   0  0  0  0  0  0  0  0  0  0  0  0
    4.7728   -2.5482   -4.3539 C   0  0  0  0  0  0  0  0  0  0  0  0
    3.6259   -2.9047   -3.6415 C   0  0  0  0  0  0  0  0  0  0  0  0
    3.4202   -5.7901   -1.5149 C   0  0  0  0  0  0  0  0  0  0  0  0
    3.3817   -6.9345   -1.9627 O   0  0  0  0  0  0  0  0  0  0  0  0
    4.2510   -5.5262   -0.2840 C   0  0  0  0  0  0  0  0  0  0  0  0
    4.5188   -4.2321    0.0045 C   0  0  0  0  0  0  0  0  0  0  0  0
    3.8650    0.3246    1.4959 H   0  0  0  0  0  0  0  0  0  0  0  0
    2.5978    1.1671    0.6275 H   0  0  0  0  0  0  0  0  0  0  0  0
    5.4290    0.6020   -0.3605 H   0  0  0  0  0  0  0  0  0  0  0  0
    4.8020    2.1285    0.1653 H   0  0  0  0  0  0  0  0  0  0  0  0
    3.3887    3.5461   -1.4893 H   0  0  0  0  0  0  0  0  0  0  0  0
    2.6621    5.0480   -3.4105 H   0  0  0  0  0  0  0  0  0  0  0  0
    2.2418    5.3661   -5.8246 H   0  0  0  0  0  0  0  0  0  0  0  0
    2.6561    3.5253   -7.4316 H   0  0  0  0  0  0  0  0  0  0  0  0
    3.5216    1.3571   -6.6193 H   0  0  0  0  0  0  0  0  0  0  0  0
    4.3584    0.1027   -4.7909 H   0  0  0  0  0  0  0  0  0  0  0  0
    4.5519   -1.8122    0.7252 H   0  0  0  0  0  0  0  0  0  0  0  0
    1.7694   -2.9018   -1.5319 H   0  0  0  0  0  0  0  0  0  0  0  0
    3.8220   -6.2470   -4.1293 H   0  0  0  0  0  0  0  0  0  0  0  0
    5.8407   -5.5715   -5.3422 H   0  0  0  0  0  0  0  0  0  0  0  0
    6.5743   -3.1876   -5.2926 H   0  0  0  0  0  0  0  0  0  0  0  0
    5.1207   -1.5352   -4.3792 H   0  0  0  0  0  0  0  0  0  0  0  0
    3.0787   -2.1074   -3.1444 H   0  0  0  0  0  0  0  0  0  0  0  0
    3.8791   -6.1809    0.5025 H   0  0  0  0  0  0  0  0  0  0  0  0
    5.4583   -3.8702   -0.4406 H   0  0  0  0  0  0  0  0  0  0  0  0
  1  2  2  0  0  0  0
  2  3  1  0  0  0  0
  2 16  1  0  0  0  0
  3  4  1  0  0  0  0
  3 30  1  0  0  0  0
  3 31  1  0  0  0  0
  4  5  1  0  0  0  0
  4 32  1  0  0  0  0
  4 33  1  0  0  0  0
  5  6  2  0  0  0  0
  5 14  1  0  0  0  0
  6  7  1  0  0  0  0
  6 34  1  0  0  0  0
  7  8  2  0  0  0  0
  7 12  1  0  0  0  0
  8  9  1  0  0  0  0
  8 35  1  0  0  0  0
  9 10  2  0  0  0  0
  9 36  1  0  0  0  0
 10 11  1  0  0  0  0
 10 37  1  0  0  0  0
 11 12  2  0  0  0  0
 11 38  1  0  0  0  0
 12 13  1  0  0  0  0
 13 14  1  0  0  0  0
 13 39  1  0  0  0  0
 14 15  2  0  0  0  0
 16 17  1  0  0  0  0
 16 40  1  0  0  0  0
 17 18  2  0  0  0  0
 17 29  1  0  0  0  0
 18 19  1  0  0  0  0
 18 41  1  0  0  0  0
 19 20  1  0  0  0  0
 19 26  1  0  0  0  0
 20 21  2  0  0  0  0
 20 25  1  0  0  0  0
 21 22  1  0  0  0  0
 21 42  1  0  0  0  0
 22 23  2  0  0  0  0
 22 43  1  0  0  0  0
 23 24  1  0  0  0  0
 23 44  1  0  0  0  0
 24 25  2  0  0  0  0
 24 45  1  0  0  0  0
 25 46  1  0  0  0  0
 26 27  2  0  0  0  0
 26 28  1  0  0  0  0
 28 29  2  0  0  0  0
 28 47  1  0  0  0  0
 29 48  1  0  0  0  0
M  END
$$$$
