
 OpenBabel01122422363D

 49 52  0  0  0  0  0  0  0  0999 V2000
    6.5267    4.9914   -6.7250 N   0  0  0  0  0  0  0  0  0  0  0  0
    6.4478    4.4588   -5.6836 C   0  0  0  0  0  0  0  0  0  0  0  0
    6.3498    3.8070   -4.4220 C   0  0  0  0  0  0  0  0  0  0  0  0
    5.9952    4.3702   -3.2088 C   0  0  0  0  0  0  0  0  0  0  0  0
    6.0422    3.3661   -2.2872 N   0  0  0  0  0  0  0  0  0  0  0  0
    5.6953    3.4501   -0.8792 C   0  0  0  0  0  0  0  0  0  0  0  0
    6.8390    3.0750    0.0689 C   0  0  0  0  0  0  0  0  0  0  0  0
    8.0405    3.8950   -0.0466 N   0  0  0  0  0  0  0  0  0  0  0  0
    8.0638    5.2509    0.2229 C   0  0  0  0  0  0  0  0  0  0  0  0
    7.0702    5.8712    0.5854 O   0  0  0  0  0  0  0  0  0  0  0  0
    9.3803    5.9509    0.0417 C   0  0  0  0  0  0  0  0  0  0  0  0
   10.3413    5.4699   -0.8541 C   0  0  0  0  0  0  0  0  0  0  0  0
   11.5634    6.1423   -1.0233 C   0  0  0  0  0  0  0  0  0  0  0  0
   11.8552    7.3226   -0.3236 C   0  0  0  0  0  0  0  0  0  0  0  0
   13.1885    7.9455   -0.5055 C   0  0  0  0  0  0  0  0  0  0  0  0
   13.4753    9.2557   -0.3984 C   0  0  0  0  0  0  0  0  0  0  0  0
   14.8246    9.8442   -0.5496 C   0  0  0  0  0  0  0  0  0  0  0  0
   15.0166   11.2037   -0.3487 C   0  0  0  0  0  0  0  0  0  0  0  0
   16.3181   11.6570   -0.2160 C   0  0  0  0  0  0  0  0  0  0  0  0
   17.3181   10.9469   -0.8773 C   0  0  0  0  0  0  0  0  0  0  0  0
   18.5255   11.5842   -1.3204 C   0  0  0  0  0  0  0  0  0  0  0  0
   19.4037   10.8464   -2.1278 C   0  0  0  0  0  0  0  0  0  0  0  0
   19.1480    9.4966   -2.3696 C   0  0  0  0  0  0  0  0  0  0  0  0
   17.9919    8.8815   -1.8556 C   0  0  0  0  0  0  0  0  0  0  0  0
   17.0333    9.6156   -1.1698 C   0  0  0  0  0  0  0  0  0  0  0  0
   15.8472    9.0279   -0.8667 N   0  0  0  0  0  0  0  0  0  0  0  0
   10.8820    7.8084    0.5627 C   0  0  0  0  0  0  0  0  0  0  0  0
    9.6531    7.1363    0.7371 C   0  0  0  0  0  0  0  0  0  0  0  0
    6.3701    2.1679   -2.8316 N   0  0  0  0  0  0  0  0  0  0  0  0
    6.5620    2.4501   -4.1226 C   0  0  0  0  0  0  0  0  0  0  0  0
    5.7173    5.3812   -2.9303 H   0  0  0  0  0  0  0  0  0  0  0  0
    4.8484    2.7776   -0.7246 H   0  0  0  0  0  0  0  0  0  0  0  0
    5.3399    4.4703   -0.6861 H   0  0  0  0  0  0  0  0  0  0  0  0
    7.1463    2.0360   -0.1036 H   0  0  0  0  0  0  0  0  0  0  0  0
    6.4861    3.1416    1.1054 H   0  0  0  0  0  0  0  0  0  0  0  0
    8.9158    3.3989   -0.1481 H   0  0  0  0  0  0  0  0  0  0  0  0
   10.1488    4.5874   -1.4560 H   0  0  0  0  0  0  0  0  0  0  0  0
   12.2838    5.7331   -1.7294 H   0  0  0  0  0  0  0  0  0  0  0  0
   13.9928    7.2514   -0.7511 H   0  0  0  0  0  0  0  0  0  0  0  0
   12.6906    9.9687   -0.1649 H   0  0  0  0  0  0  0  0  0  0  0  0
   14.1933   11.9047   -0.3532 H   0  0  0  0  0  0  0  0  0  0  0  0
   16.5638   12.4895    0.4437 H   0  0  0  0  0  0  0  0  0  0  0  0
   18.6772   12.6247   -1.1826 H   0  0  0  0  0  0  0  0  0  0  0  0
   20.2417   11.3224   -2.5851 H   0  0  0  0  0  0  0  0  0  0  0  0
   19.8156    8.9073   -2.9978 H   0  0  0  0  0  0  0  0  0  0  0  0
   17.8066    7.8375   -2.0758 H   0  0  0  0  0  0  0  0  0  0  0  0
   11.0673    8.7101    1.1426 H   0  0  0  0  0  0  0  0  0  0  0  0
    8.9150    7.5448    1.4271 H   0  0  0  0  0  0  0  0  0  0  0  0
    6.8408    1.6507   -4.7947 H   0  0  0  0  0  0  0  0  0  0  0  0
  1  2  3  0  0  0  0
  2  3  1  0  0  0  0
  3  4  2  0  0  0  0
  3 30  1  0  0  0  0
  4  5  1  0  0  0  0
  4 31  1  0  0  0  0
  5  6  1  0  0  0  0
  5 29  1  0  0  0  0
  6  7  1  0  0  0  0
  6 32  1  0  0  0  0
  6 33  1  0  0  0  0
  7  8  1  0  0  0  0
  7 34  1  0  0  0  0
  7 35  1  0  0  0  0
  8  9  1  0  0  0  0
  8 36  1  0  0  0  0
  9 10  2  0  0  0  0
  9 11  1  0  0  0  0
 11 12  2  0  0  0  0
 11 28  1  0  0  0  0
 12 13  1  0  0  0  0
 12 37  1  0  0  0  0
 13 14  2  0  0  0  0
 13 38  1  0  0  0  0
 14 15  1  0  0  0  0
 14 27  1  0  0  0  0
 15 16  2  3  0  0  0
 15 39  1  0  0  0  0
 16 17  1  0  0  0  0
 16 40  1  0  0  0  0
 17 18  2  0  0  0  0
 17 26  1  0  0  0  0
 18 19  1  0  0  0  0
 18 41  1  0  0  0  0
 19 20  2  0  0  0  0
 19 42  1  0  0  0  0
 20 21  1  0  0  0  0
 20 25  1  0  0  0  0
 21 22  2  0  0  0  0
 21 43  1  0  0  0  0
 22 23  1  0  0  0  0
 22 44  1  0  0  0  0
 23 24  2  0  0  0  0
 23 45  1  0  0  0  0
 24 25  1  0  0  0  0
 24 46  1  0  0  0  0
 25 26  2  0  0  0  0
 27 28  2  0  0  0  0
 27 47  1  0  0  0  0
 28 48  1  0  0  0  0
 29 30  2  0  0  0  0
 30 49  1  0  0  0  0
M  END
$$$$
