
 OpenBabel01122422363D

 49 52  0  0  0  0  0  0  0  0999 V2000
    2.8789    1.3585   -0.6787 C   0  0  0  0  0  0  0  0  0  0  0  0
    4.0601    0.5466   -0.6571 N   0  0  0  0  0  0  0  0  0  0  0  0
    5.3611    0.9817   -0.5094 C   0  0  0  0  0  0  0  0  0  0  0  0
    5.7246    2.1430   -0.3802 O   0  0  0  0  0  0  0  0  0  0  0  0
    6.2559   -0.0998   -0.5232 O   0  0  0  0  0  0  0  0  0  0  0  0
    5.4088   -1.1869   -0.6610 C   0  0  0  0  0  0  0  0  0  0  0  0
    5.7959   -2.5076   -0.6998 C   0  0  0  0  0  0  0  0  0  0  0  0
    4.7900   -3.4854   -0.8165 C   0  0  0  0  0  0  0  0  0  0  0  0
    5.1722   -4.9432   -0.8983 C   0  0  0  0  0  0  0  0  0  0  0  0
    5.9153   -5.3481    0.2969 N   0  0  0  0  0  0  0  0  0  0  0  0
    6.8064   -6.4239    0.1152 C   0  0  0  0  0  0  0  0  0  0  0  0
    7.9079   -6.5373    0.9686 C   0  0  0  0  0  0  0  0  0  0  0  0
    8.8134   -7.5905    0.8196 C   0  0  0  0  0  0  0  0  0  0  0  0
    8.6174   -8.5509   -0.1758 C   0  0  0  0  0  0  0  0  0  0  0  0
    7.5008   -8.4843   -1.0187 C   0  0  0  0  0  0  0  0  0  0  0  0
    7.3449   -9.4477   -2.1733 C   0  0  0  0  0  0  0  0  0  0  0  0
    5.8434  -10.4104   -2.0284 S   0  0  0  0  0  0  0  0  0  0  0  0
    5.8906  -11.1533   -0.7843 O   0  0  0  0  0  0  0  0  0  0  0  0
    4.6840   -9.5955   -2.3582 O   0  0  0  0  0  0  0  0  0  0  0  0
    5.9817  -11.6191   -3.3252 C   0  0  0  0  0  0  0  0  0  0  0  0
    6.0006  -12.9846   -3.0163 C   0  0  0  0  0  0  0  0  0  0  0  0
    6.0979  -13.9207   -4.0489 C   0  0  0  0  0  0  0  0  0  0  0  0
    6.1610  -13.4861   -5.3705 C   0  0  0  0  0  0  0  0  0  0  0  0
    6.2565  -14.3888   -6.3549 F   0  0  0  0  0  0  0  0  0  0  0  0
    6.1319  -12.1321   -5.6830 C   0  0  0  0  0  0  0  0  0  0  0  0
    6.0462  -11.2010   -4.6512 C   0  0  0  0  0  0  0  0  0  0  0  0
    6.0462   -9.8982   -4.9622 F   0  0  0  0  0  0  0  0  0  0  0  0
    6.5909   -7.4333   -0.8345 C   0  0  0  0  0  0  0  0  0  0  0  0
    3.4330   -3.0923   -0.9210 C   0  0  0  0  0  0  0  0  0  0  0  0
    3.0673   -1.7433   -0.8873 C   0  0  0  0  0  0  0  0  0  0  0  0
    4.0822   -0.8229   -0.7486 C   0  0  0  0  0  0  0  0  0  0  0  0
    3.1362    2.4140   -0.5573 H   0  0  0  0  0  0  0  0  0  0  0  0
    2.2175    1.0559    0.1390 H   0  0  0  0  0  0  0  0  0  0  0  0
    2.3664    1.2222   -1.6355 H   0  0  0  0  0  0  0  0  0  0  0  0
    6.8433   -2.7870   -0.6356 H   0  0  0  0  0  0  0  0  0  0  0  0
    5.7763   -5.0569   -1.8084 H   0  0  0  0  0  0  0  0  0  0  0  0
    4.2781   -5.5691   -1.0059 H   0  0  0  0  0  0  0  0  0  0  0  0
    5.2687   -5.5891    1.0492 H   0  0  0  0  0  0  0  0  0  0  0  0
    8.0865   -5.7813    1.7310 H   0  0  0  0  0  0  0  0  0  0  0  0
    9.6852   -7.6494    1.4677 H   0  0  0  0  0  0  0  0  0  0  0  0
    9.3551   -9.3417   -0.2913 H   0  0  0  0  0  0  0  0  0  0  0  0
    8.1799  -10.1548   -2.1983 H   0  0  0  0  0  0  0  0  0  0  0  0
    7.3226   -8.8896   -3.1134 H   0  0  0  0  0  0  0  0  0  0  0  0
    5.9330  -13.3282   -1.9859 H   0  0  0  0  0  0  0  0  0  0  0  0
    6.1183  -14.9853   -3.8318 H   0  0  0  0  0  0  0  0  0  0  0  0
    6.1747  -11.8106   -6.7179 H   0  0  0  0  0  0  0  0  0  0  0  0
    5.7071   -7.3924   -1.4659 H   0  0  0  0  0  0  0  0  0  0  0  0
    2.6541   -3.8448   -1.0328 H   0  0  0  0  0  0  0  0  0  0  0  0
    2.0287   -1.4456   -0.9636 H   0  0  0  0  0  0  0  0  0  0  0  0
  1  2  1  0  0  0  0
  1 32  1  0  0  0  0
  1 33  1  0  0  0  0
  1 34  1  0  0  0  0
  2  3  1  0  0  0  0
  2 31  1  0  0  0  0
  3  4  2  0  0  0  0
  3  5  1  0  0  0  0
  5  6  1  0  0  0  0
  6  7  2  0  0  0  0
  6 31  1  0  0  0  0
  7  8  1  0  0  0  0
  7 35  1  0  0  0  0
  8  9  1  0  0  0  0
  8 29  2  0  0  0  0
  9 10  1  0  0  0  0
  9 36  1  0  0  0  0
  9 37  1  0  0  0  0
 10 11  1  0  0  0  0
 10 38  1  0  0  0  0
 11 12  2  0  0  0  0
 11 28  1  0  0  0  0
 12 13  1  0  0  0  0
 12 39  1  0  0  0  0
 13 14  2  0  0  0  0
 13 40  1  0  0  0  0
 14 15  1  0  0  0  0
 14 41  1  0  0  0  0
 15 16  1  0  0  0  0
 15 28  2  0  0  0  0
 16 17  1  0  0  0  0
 16 42  1  0  0  0  0
 16 43  1  0  0  0  0
 17 18  2  0  0  0  0
 17 19  2  0  0  0  0
 17 20  1  0  0  0  0
 20 21  2  0  0  0  0
 20 26  1  0  0  0  0
 21 22  1  0  0  0  0
 21 44  1  0  0  0  0
 22 23  2  0  0  0  0
 22 45  1  0  0  0  0
 23 24  1  0  0  0  0
 23 25  1  0  0  0  0
 25 26  2  0  0  0  0
 25 46  1  0  0  0  0
 26 27  1  0  0  0  0
 28 47  1  0  0  0  0
 29 30  1  0  0  0  0
 29 48  1  0  0  0  0
 30 31  2  0  0  0  0
 30 49  1  0  0  0  0
M  END
$$$$
