
 OpenBabel01122422363D

 51 54  0  0  1  0  0  0  0  0999 V2000
    2.0465   -1.7388   -1.0261 O   0  0  0  0  0  0  0  0  0  0  0  0
    2.7760   -0.8840   -0.5288 C   0  0  0  0  0  0  0  0  0  0  0  0
    2.8776    0.4070   -0.9994 N   0  0  0  0  0  0  0  0  0  0  0  0
    2.2153    0.8681   -2.2152 C   0  0  1  0  0  0  0  0  0  0  0  0
    1.3036    2.0713   -1.9058 C   0  0  0  0  0  0  0  0  0  0  0  0
    0.2214    1.7874   -0.8709 C   0  0  0  0  0  0  0  0  0  0  0  0
   -0.5710    2.9606   -0.6910 O   0  0  0  0  0  0  0  0  0  0  0  0
    3.2263    1.2193   -3.3105 C   0  0  0  0  0  0  0  0  0  0  0  0
    4.6081    1.1240   -3.1202 C   0  0  0  0  0  0  0  0  0  0  0  0
    5.5076    1.4631   -4.1371 C   0  0  0  0  0  0  0  0  0  0  0  0
    5.0689    1.8877   -5.4002 C   0  0  0  0  0  0  0  0  0  0  0  0
    6.0342    2.2304   -6.4694 C   0  0  0  0  0  0  0  0  0  0  0  0
    7.2828    1.5840   -6.5647 C   0  0  0  0  0  0  0  0  0  0  0  0
    8.2064    1.9205   -7.5575 C   0  0  0  0  0  0  0  0  0  0  0  0
    7.8992    2.9022   -8.4910 C   0  0  0  0  0  0  0  0  0  0  0  0
    6.6699    3.5519   -8.4281 C   0  0  0  0  0  0  0  0  0  0  0  0
    5.7526    3.2237   -7.4253 C   0  0  0  0  0  0  0  0  0  0  0  0
    3.6807    1.9642   -5.5959 C   0  0  0  0  0  0  0  0  0  0  0  0
    2.7766    1.6368   -4.5753 C   0  0  0  0  0  0  0  0  0  0  0  0
    3.6193   -1.1987    0.6692 C   0  0  0  0  0  0  0  0  0  0  0  0
    3.5467   -2.4595    1.2486 C   0  0  0  0  0  0  0  0  0  0  0  0
    4.3221   -2.7271    2.3823 C   0  0  0  0  0  0  0  0  0  0  0  0
    4.2879   -3.9808    3.0091 C   0  0  0  0  0  0  0  0  0  0  0  0
    5.0767   -4.1925    4.1276 C   0  0  0  0  0  0  0  0  0  0  0  0
    5.8721   -3.2489    4.6667 N   0  0  0  0  0  0  0  0  0  0  0  0
    5.8863   -2.0420    4.0536 C   0  0  0  0  0  0  0  0  0  0  0  0
    5.1502   -1.7137    2.9006 C   0  0  0  0  0  0  0  0  0  0  0  0
    5.1547   -0.4774    2.2203 C   0  0  0  0  0  0  0  0  0  0  0  0
    5.9293    0.5780    2.6052 O   0  0  0  0  0  0  0  0  0  0  0  0
    4.4130   -0.1983    1.1301 N   0  0  0  0  0  0  0  0  0  0  0  0
    3.5714    0.9968   -0.5465 H   0  0  0  0  0  0  0  0  0  0  0  0
    1.6006    0.0467   -2.6052 H   0  0  0  0  0  0  0  0  0  0  0  0
    0.7989    2.4134   -2.8186 H   0  0  0  0  0  0  0  0  0  0  0  0
    1.9045    2.9268   -1.5720 H   0  0  0  0  0  0  0  0  0  0  0  0
    0.6380    1.5116    0.1021 H   0  0  0  0  0  0  0  0  0  0  0  0
   -0.4456    0.9867   -1.2043 H   0  0  0  0  0  0  0  0  0  0  0  0
   -0.0041    3.6331   -0.2746 H   0  0  0  0  0  0  0  0  0  0  0  0
    5.0306    0.7811   -2.1797 H   0  0  0  0  0  0  0  0  0  0  0  0
    6.5696    1.3937   -3.9140 H   0  0  0  0  0  0  0  0  0  0  0  0
    7.5540    0.7980   -5.8631 H   0  0  0  0  0  0  0  0  0  0  0  0
    9.1664    1.4105   -7.5955 H   0  0  0  0  0  0  0  0  0  0  0  0
    8.6137    3.1605   -9.2674 H   0  0  0  0  0  0  0  0  0  0  0  0
    6.4230    4.3212   -9.1544 H   0  0  0  0  0  0  0  0  0  0  0  0
    4.8146    3.7724   -7.3916 H   0  0  0  0  0  0  0  0  0  0  0  0
    3.2744    2.2679   -6.5580 H   0  0  0  0  0  0  0  0  0  0  0  0
    1.7121    1.7109   -4.7902 H   0  0  0  0  0  0  0  0  0  0  0  0
    2.8889   -3.2131    0.8218 H   0  0  0  0  0  0  0  0  0  0  0  0
    3.6621   -4.7870    2.6372 H   0  0  0  0  0  0  0  0  0  0  0  0
    5.0883   -5.1547    4.6332 H   0  0  0  0  0  0  0  0  0  0  0  0
    6.5329   -1.3236    4.5482 H   0  0  0  0  0  0  0  0  0  0  0  0
    6.5895    0.2876    3.2478 H   0  0  0  0  0  0  0  0  0  0  0  0
  1  2  2  0  0  0  0
  2  3  1  0  0  0  0
  2 20  1  0  0  0  0
  3  4  1  0  0  0  0
  3 31  1  0  0  0  0
  4  5  1  0  0  0  0
  4  8  1  0  0  0  0
  4 32  1  6  0  0  0
  5  6  1  0  0  0  0
  5 33  1  0  0  0  0
  5 34  1  0  0  0  0
  6  7  1  0  0  0  0
  6 35  1  0  0  0  0
  6 36  1  0  0  0  0
  7 37  1  0  0  0  0
  8  9  2  0  0  0  0
  8 19  1  0  0  0  0
  9 10  1  0  0  0  0
  9 38  1  0  0  0  0
 10 11  2  0  0  0  0
 10 39  1  0  0  0  0
 11 12  1  0  0  0  0
 11 18  1  0  0  0  0
 12 13  2  0  0  0  0
 12 17  1  0  0  0  0
 13 14  1  0  0  0  0
 13 40  1  0  0  0  0
 14 15  2  0  0  0  0
 14 41  1  0  0  0  0
 15 16  1  0  0  0  0
 15 42  1  0  0  0  0
 16 17  2  0  0  0  0
 16 43  1  0  0  0  0
 17 44  1  0  0  0  0
 18 19  2  0  0  0  0
 18 45  1  0  0  0  0
 19 46  1  0  0  0  0
 20 21  2  0  0  0  0
 20 30  1  0  0  0  0
 21 22  1  0  0  0  0
 21 47  1  0  0  0  0
 22 23  2  0  0  0  0
 22 27  1  0  0  0  0
 23 24  1  0  0  0  0
 23 48  1  0  0  0  0
 24 25  2  0  0  0  0
 24 49  1  0  0  0  0
 25 26  1  0  0  0  0
 26 27  2  0  0  0  0
 26 50  1  0  0  0  0
 27 28  1  0  0  0  0
 28 29  1  0  0  0  0
 28 30  2  0  0  0  0
 29 51  1  0  0  0  0
M  END
$$$$
