
 OpenBabel01122422363D

 50 53  0  0  0  0  0  0  0  0999 V2000
    2.4136    1.8844    2.3615 O   0  0  0  0  0  0  0  0  0  0  0  0
    1.6204    1.2515    3.0457 C   0  0  0  0  0  0  0  0  0  0  0  0
    1.5454   -0.1202    3.0562 N   0  0  0  0  0  0  0  0  0  0  0  0
    2.4365   -0.9401    2.2605 C   0  0  0  0  0  0  0  0  0  0  0  0
    3.2432   -1.8386    3.1551 C   0  0  0  0  0  0  0  0  0  0  0  0
    4.1315   -1.2250    4.0580 C   0  0  0  0  0  0  0  0  0  0  0  0
    4.8747   -1.9806    4.9583 C   0  0  0  0  0  0  0  0  0  0  0  0
    4.7523   -3.3662    4.9578 C   0  0  0  0  0  0  0  0  0  0  0  0
    3.8989   -3.9942    4.0452 C   0  0  0  0  0  0  0  0  0  0  0  0
    3.1325   -3.2363    3.1524 C   0  0  0  0  0  0  0  0  0  0  0  0
    2.3664   -3.8950    2.1523 N   0  0  0  0  0  0  0  0  0  0  0  0
    0.9404   -4.7016    2.5162 S   0  0  0  0  0  0  0  0  0  0  0  0
    0.6213   -5.5039    1.3559 O   0  0  0  0  0  0  0  0  0  0  0  0
    1.0324   -5.2883    3.8343 O   0  0  0  0  0  0  0  0  0  0  0  0
   -0.2433   -3.3750    2.5631 C   0  0  0  0  0  0  0  0  0  0  0  0
   -0.5109   -2.6538    1.3934 C   0  0  0  0  0  0  0  0  0  0  0  0
   -1.4115   -1.5889    1.4268 C   0  0  0  0  0  0  0  0  0  0  0  0
   -2.0729   -1.2763    2.6178 C   0  0  0  0  0  0  0  0  0  0  0  0
   -1.8288   -2.0213    3.7722 C   0  0  0  0  0  0  0  0  0  0  0  0
   -0.9095   -3.0707    3.7520 C   0  0  0  0  0  0  0  0  0  0  0  0
    0.6393    1.9755    3.8849 C   0  0  0  0  0  0  0  0  0  0  0  0
    0.1992    3.2162    3.4314 C   0  0  0  0  0  0  0  0  0  0  0  0
   -0.7465    3.8796    4.1836 C   0  0  0  0  0  0  0  0  0  0  0  0
   -1.2532    3.3989    5.3384 N   0  0  0  0  0  0  0  0  0  0  0  0
   -0.7824    2.2039    5.7850 C   0  0  0  0  0  0  0  0  0  0  0  0
   -1.3332    1.7231    7.0587 C   0  0  0  0  0  0  0  0  0  0  0  0
   -0.9834    0.5421    7.6050 N   0  0  0  0  0  0  0  0  0  0  0  0
   -1.6783    0.4835    8.7526 N   0  0  0  0  0  0  0  0  0  0  0  0
   -2.4774    1.5636    8.9654 C   0  0  0  0  0  0  0  0  0  0  0  0
   -2.2819    2.3880    7.8854 C   0  0  0  0  0  0  0  0  0  0  0  0
    0.1661    1.4632    5.0905 C   0  0  0  0  0  0  0  0  0  0  0  0
    0.8319   -0.5942    3.5936 H   0  0  0  0  0  0  0  0  0  0  0  0
    3.1048   -0.3292    1.6454 H   0  0  0  0  0  0  0  0  0  0  0  0
    1.8166   -1.5027    1.5649 H   0  0  0  0  0  0  0  0  0  0  0  0
    4.2345   -0.1400    4.0583 H   0  0  0  0  0  0  0  0  0  0  0  0
    5.5440   -1.4836    5.6556 H   0  0  0  0  0  0  0  0  0  0  0  0
    5.3300   -3.9576    5.6637 H   0  0  0  0  0  0  0  0  0  0  0  0
    3.8399   -5.0802    4.0440 H   0  0  0  0  0  0  0  0  0  0  0  0
    2.8257   -4.1978    1.2953 H   0  0  0  0  0  0  0  0  0  0  0  0
    0.0038   -2.8920    0.4630 H   0  0  0  0  0  0  0  0  0  0  0  0
   -1.5981   -1.0006    0.5323 H   0  0  0  0  0  0  0  0  0  0  0  0
   -2.7884   -0.4587    2.6402 H   0  0  0  0  0  0  0  0  0  0  0  0
   -2.3627   -1.7860    4.6914 H   0  0  0  0  0  0  0  0  0  0  0  0
   -0.7258   -3.6471    4.6558 H   0  0  0  0  0  0  0  0  0  0  0  0
    0.5782    3.6458    2.5097 H   0  0  0  0  0  0  0  0  0  0  0  0
   -1.1390    4.8409    3.8650 H   0  0  0  0  0  0  0  0  0  0  0  0
   -1.5557   -0.3298    9.3474 H   0  0  0  0  0  0  0  0  0  0  0  0
   -3.0963    1.6520    9.8467 H   0  0  0  0  0  0  0  0  0  0  0  0
   -2.7458    3.3476    7.7018 H   0  0  0  0  0  0  0  0  0  0  0  0
    0.5344    0.5283    5.4984 H   0  0  0  0  0  0  0  0  0  0  0  0
  1  2  2  0  0  0  0
  2  3  1  0  0  0  0
  2 21  1  0  0  0  0
  3  4  1  0  0  0  0
  3 32  1  0  0  0  0
  4  5  1  0  0  0  0
  4 33  1  0  0  0  0
  4 34  1  0  0  0  0
  5  6  2  0  0  0  0
  5 10  1  0  0  0  0
  6  7  1  0  0  0  0
  6 35  1  0  0  0  0
  7  8  2  0  0  0  0
  7 36  1  0  0  0  0
  8  9  1  0  0  0  0
  8 37  1  0  0  0  0
  9 10  2  0  0  0  0
  9 38  1  0  0  0  0
 10 11  1  0  0  0  0
 11 12  1  0  0  0  0
 11 39  1  0  0  0  0
 12 13  2  0  0  0  0
 12 14  2  0  0  0  0
 12 15  1  0  0  0  0
 15 16  2  0  0  0  0
 15 20  1  0  0  0  0
 16 17  1  0  0  0  0
 16 40  1  0  0  0  0
 17 18  2  0  0  0  0
 17 41  1  0  0  0  0
 18 19  1  0  0  0  0
 18 42  1  0  0  0  0
 19 20  2  0  0  0  0
 19 43  1  0  0  0  0
 20 44  1  0  0  0  0
 21 22  2  0  0  0  0
 21 31  1  0  0  0  0
 22 23  1  0  0  0  0
 22 45  1  0  0  0  0
 23 24  2  0  0  0  0
 23 46  1  0  0  0  0
 24 25  1  0  0  0  0
 25 26  1  0  0  0  0
 25 31  2  0  0  0  0
 26 27  2  0  0  0  0
 26 30  1  0  0  0  0
 27 28  1  0  0  0  0
 28 29  1  0  0  0  0
 28 47  1  0  0  0  0
 29 30  2  0  0  0  0
 29 48  1  0  0  0  0
 30 49  1  0  0  0  0
 31 50  1  0  0  0  0
M  END
$$$$
