
 OpenBabel01122422373D

 44 47  0  0  0  0  0  0  0  0999 V2000
    0.8031   -1.2301    1.7236 C   0  0  0  0  0  0  0  0  0  0  0  0
    2.3042   -1.0984    1.8326 C   0  0  0  0  0  0  0  0  0  0  0  0
    2.7729   -0.3727    2.8012 N   0  0  0  0  0  0  0  0  0  0  0  0
    4.1202   -0.2718    2.9305 N   0  0  0  0  0  0  0  0  0  0  0  0
    5.0620   -0.8944    2.1470 C   0  0  0  0  0  0  0  0  0  0  0  0
    6.2645   -0.7443    2.3458 O   0  0  0  0  0  0  0  0  0  0  0  0
    4.5519   -1.7392    1.0473 C   0  0  0  0  0  0  0  0  0  0  0  0
    5.4057   -2.5045    0.2348 C   0  0  0  0  0  0  0  0  0  0  0  0
    6.8012   -2.5099    0.4392 N   0  0  0  0  0  0  0  0  0  0  0  0
    7.5738   -3.6619    0.4310 C   0  0  0  0  0  0  0  0  0  0  0  0
    7.1481   -4.8046    0.2802 O   0  0  0  0  0  0  0  0  0  0  0  0
    9.0269   -3.4294    0.7093 C   0  0  0  0  0  0  0  0  0  0  0  0
    9.8604   -4.4935    1.0356 C   0  0  0  0  0  0  0  0  0  0  0  0
   11.2032   -4.2256    1.3097 C   0  0  0  0  0  0  0  0  0  0  0  0
   11.6655   -2.9118    1.2499 C   0  0  0  0  0  0  0  0  0  0  0  0
   12.9868   -2.6983    1.5650 O   0  0  0  0  0  0  0  0  0  0  0  0
   13.3567   -1.4882    2.1155 C   0  0  0  0  0  0  0  0  0  0  0  0
   12.5596   -0.7709    3.0180 C   0  0  0  0  0  0  0  0  0  0  0  0
   12.9668    0.4864    3.4573 C   0  0  0  0  0  0  0  0  0  0  0  0
   14.2016    0.9884    3.0508 C   0  0  0  0  0  0  0  0  0  0  0  0
   14.5884    2.1959    3.4683 F   0  0  0  0  0  0  0  0  0  0  0  0
   15.0368    0.2437    2.2261 C   0  0  0  0  0  0  0  0  0  0  0  0
   14.6152   -1.0013    1.7575 C   0  0  0  0  0  0  0  0  0  0  0  0
   10.7698   -1.9277    0.8409 C   0  0  0  0  0  0  0  0  0  0  0  0
    9.4562   -2.1440    0.6023 N   0  0  0  0  0  0  0  0  0  0  0  0
    4.8611   -3.2603   -0.8112 C   0  0  0  0  0  0  0  0  0  0  0  0
    3.4847   -3.2795   -1.0324 C   0  0  0  0  0  0  0  0  0  0  0  0
    2.6340   -2.5772   -0.1817 C   0  0  0  0  0  0  0  0  0  0  0  0
    3.1675   -1.8156    0.8653 C   0  0  0  0  0  0  0  0  0  0  0  0
    0.3113   -0.6293    2.4944 H   0  0  0  0  0  0  0  0  0  0  0  0
    0.5112   -2.2755    1.8674 H   0  0  0  0  0  0  0  0  0  0  0  0
    0.4627   -0.8791    0.7462 H   0  0  0  0  0  0  0  0  0  0  0  0
    4.4578    0.3058    3.6943 H   0  0  0  0  0  0  0  0  0  0  0  0
    7.2059   -1.7305    0.9675 H   0  0  0  0  0  0  0  0  0  0  0  0
    9.4747   -5.5072    1.0893 H   0  0  0  0  0  0  0  0  0  0  0  0
   11.8790   -5.0337    1.5750 H   0  0  0  0  0  0  0  0  0  0  0  0
   11.6081   -1.1629    3.3637 H   0  0  0  0  0  0  0  0  0  0  0  0
   12.3313    1.0784    4.1101 H   0  0  0  0  0  0  0  0  0  0  0  0
   16.0079    0.6463    1.9462 H   0  0  0  0  0  0  0  0  0  0  0  0
   15.2625   -1.5800    1.1057 H   0  0  0  0  0  0  0  0  0  0  0  0
   11.0804   -0.8956    0.7009 H   0  0  0  0  0  0  0  0  0  0  0  0
    5.5109   -3.8197   -1.4813 H   0  0  0  0  0  0  0  0  0  0  0  0
    3.0790   -3.8549   -1.8618 H   0  0  0  0  0  0  0  0  0  0  0  0
    1.5638   -2.6422   -0.3558 H   0  0  0  0  0  0  0  0  0  0  0  0
  1  2  1  0  0  0  0
  1 30  1  0  0  0  0
  1 31  1  0  0  0  0
  1 32  1  0  0  0  0
  2  3  2  0  0  0  0
  2 29  1  0  0  0  0
  3  4  1  0  0  0  0
  4  5  1  0  0  0  0
  4 33  1  0  0  0  0
  5  6  2  0  0  0  0
  5  7  1  0  0  0  0
  7  8  2  0  0  0  0
  7 29  1  0  0  0  0
  8  9  1  0  0  0  0
  8 26  1  0  0  0  0
  9 10  1  0  0  0  0
  9 34  1  0  0  0  0
 10 11  2  0  0  0  0
 10 12  1  0  0  0  0
 12 13  2  0  0  0  0
 12 25  1  0  0  0  0
 13 14  1  0  0  0  0
 13 35  1  0  0  0  0
 14 15  2  0  0  0  0
 14 36  1  0  0  0  0
 15 16  1  0  0  0  0
 15 24  1  0  0  0  0
 16 17  1  0  0  0  0
 17 18  2  0  0  0  0
 17 23  1  0  0  0  0
 18 19  1  0  0  0  0
 18 37  1  0  0  0  0
 19 20  2  0  0  0  0
 19 38  1  0  0  0  0
 20 21  1  0  0  0  0
 20 22  1  0  0  0  0
 22 23  2  0  0  0  0
 22 39  1  0  0  0  0
 23 40  1  0  0  0  0
 24 25  2  0  0  0  0
 24 41  1  0  0  0  0
 26 27  2  0  0  0  0
 26 42  1  0  0  0  0
 27 28  1  0  0  0  0
 27 43  1  0  0  0  0
 28 29  2  0  0  0  0
 28 44  1  0  0  0  0
M  END
$$$$
