
 OpenBabel01122422373D

 43 46  0  0  0  0  0  0  0  0999 V2000
    3.2329    0.2423   -1.0465 O   0  0  0  0  0  0  0  0  0  0  0  0
    3.3829   -0.1001    0.1235 C   0  0  0  0  0  0  0  0  0  0  0  0
    4.0612    0.8326    1.0675 C   0  0  0  0  0  0  0  0  0  0  0  0
    4.2423    0.4922    2.3499 C   0  0  0  0  0  0  0  0  0  0  0  0
    3.7474   -0.7706    2.8376 C   0  0  0  0  0  0  0  0  0  0  0  0
    3.1508   -1.6294    2.0016 C   0  0  0  0  0  0  0  0  0  0  0  0
    2.9863   -1.3285    0.6584 N   0  0  0  0  0  0  0  0  0  0  0  0
    2.3592   -2.3108   -0.2311 C   0  0  0  0  0  0  0  0  0  0  0  0
    0.8575   -2.1597   -0.2988 C   0  0  0  0  0  0  0  0  0  0  0  0
    0.2786   -1.2752   -1.2105 C   0  0  0  0  0  0  0  0  0  0  0  0
   -1.0833   -0.9660   -1.1325 C   0  0  0  0  0  0  0  0  0  0  0  0
   -1.9238   -1.5542   -0.1671 C   0  0  0  0  0  0  0  0  0  0  0  0
   -3.3239   -1.0600    0.0270 C   0  0  0  0  0  0  0  0  0  0  0  0
   -4.0723   -0.7387   -1.1335 C   0  0  0  0  0  0  0  0  0  0  0  0
   -5.3755   -0.2407   -1.0724 C   0  0  0  0  0  0  0  0  0  0  0  0
   -5.9888   -0.0622    0.1566 C   0  0  0  0  0  0  0  0  0  0  0  0
   -5.2985   -0.3723    1.3273 C   0  0  0  0  0  0  0  0  0  0  0  0
   -3.9789   -0.8707    1.2807 C   0  0  0  0  0  0  0  0  0  0  0  0
   -3.3130   -1.0796    2.5221 N   0  0  0  0  0  0  0  0  0  0  0  0
   -2.0290   -0.6790    2.6878 N   0  0  0  0  0  0  0  0  0  0  0  0
   -1.6724   -1.0269    3.9097 N   0  0  0  0  0  0  0  0  0  0  0  0
   -2.7161   -1.5880    4.5746 N   0  0  0  0  0  0  0  0  0  0  0  0
   -3.7404   -1.5925    3.7355 C   0  0  0  0  0  0  0  0  0  0  0  0
   -5.0703   -2.1426    4.0352 C   0  0  0  0  0  0  0  0  0  0  0  0
   -5.8226   -2.4411    2.9457 F   0  0  0  0  0  0  0  0  0  0  0  0
   -4.9935   -3.2953    4.7506 F   0  0  0  0  0  0  0  0  0  0  0  0
   -5.8022   -1.2752    4.7827 F   0  0  0  0  0  0  0  0  0  0  0  0
   -1.3565   -2.5700    0.6208 C   0  0  0  0  0  0  0  0  0  0  0  0
    0.0201   -2.8344    0.5939 C   0  0  0  0  0  0  0  0  0  0  0  0
    4.4086    1.7781    0.6512 H   0  0  0  0  0  0  0  0  0  0  0  0
    4.7530    1.1536    3.0419 H   0  0  0  0  0  0  0  0  0  0  0  0
    3.8679   -1.0068    3.8949 H   0  0  0  0  0  0  0  0  0  0  0  0
    2.7758   -2.5836    2.3512 H   0  0  0  0  0  0  0  0  0  0  0  0
    2.6259   -3.3227    0.1010 H   0  0  0  0  0  0  0  0  0  0  0  0
    2.7808   -2.2067   -1.2394 H   0  0  0  0  0  0  0  0  0  0  0  0
    0.8972   -0.7638   -1.9467 H   0  0  0  0  0  0  0  0  0  0  0  0
   -1.4599   -0.2065   -1.8141 H   0  0  0  0  0  0  0  0  0  0  0  0
   -3.6369   -0.8717   -2.1237 H   0  0  0  0  0  0  0  0  0  0  0  0
   -5.9012    0.0167   -1.9894 H   0  0  0  0  0  0  0  0  0  0  0  0
   -6.9993    0.3370    0.2069 H   0  0  0  0  0  0  0  0  0  0  0  0
   -5.8021   -0.1561    2.2665 H   0  0  0  0  0  0  0  0  0  0  0  0
   -1.9563   -3.1164    1.3433 H   0  0  0  0  0  0  0  0  0  0  0  0
    0.4349   -3.5321    1.3175 H   0  0  0  0  0  0  0  0  0  0  0  0
  1  2  2  0  0  0  0
  2  3  1  0  0  0  0
  2  7  1  0  0  0  0
  3  4  2  0  0  0  0
  3 30  1  0  0  0  0
  4  5  1  0  0  0  0
  4 31  1  0  0  0  0
  5  6  2  0  0  0  0
  5 32  1  0  0  0  0
  6  7  1  0  0  0  0
  6 33  1  0  0  0  0
  7  8  1  0  0  0  0
  8  9  1  0  0  0  0
  8 34  1  0  0  0  0
  8 35  1  0  0  0  0
  9 10  2  0  0  0  0
  9 29  1  0  0  0  0
 10 11  1  0  0  0  0
 10 36  1  0  0  0  0
 11 12  2  0  0  0  0
 11 37  1  0  0  0  0
 12 13  1  0  0  0  0
 12 28  1  0  0  0  0
 13 14  2  0  0  0  0
 13 18  1  0  0  0  0
 14 15  1  0  0  0  0
 14 38  1  0  0  0  0
 15 16  2  0  0  0  0
 15 39  1  0  0  0  0
 16 17  1  0  0  0  0
 16 40  1  0  0  0  0
 17 18  2  0  0  0  0
 17 41  1  0  0  0  0
 18 19  1  0  0  0  0
 19 20  1  0  0  0  0
 19 23  1  0  0  0  0
 20 21  2  0  0  0  0
 21 22  1  0  0  0  0
 22 23  2  0  0  0  0
 23 24  1  0  0  0  0
 24 25  1  0  0  0  0
 24 26  1  0  0  0  0
 24 27  1  0  0  0  0
 28 29  2  0  0  0  0
 28 42  1  0  0  0  0
 29 43  1  0  0  0  0
M  END
$$$$
