
 OpenBabel01122422373D

 48 51  0  0  0  0  0  0  0  0999 V2000
    0.9189    0.3106    0.1971 O   0  0  0  0  0  0  0  0  0  0  0  0
    2.1268    0.0887    0.1296 C   0  0  0  0  0  0  0  0  0  0  0  0
    2.8549   -0.2624    1.2344 N   0  0  0  0  0  0  0  0  0  0  0  0
    2.1619   -0.4201    2.4956 C   0  0  0  0  0  0  0  0  0  0  0  0
    2.9687   -1.2986    3.3917 C   0  0  0  0  0  0  0  0  0  0  0  0
    3.7591   -2.2571    2.8850 N   0  0  0  0  0  0  0  0  0  0  0  0
    4.2532   -2.8693    3.9719 N   0  0  0  0  0  0  0  0  0  0  0  0
    3.8324   -2.3368    5.1620 C   0  0  0  0  0  0  0  0  0  0  0  0
    4.2202   -2.8594    6.4685 C   0  0  0  0  0  0  0  0  0  0  0  0
    4.3393   -1.9995    7.5681 C   0  0  0  0  0  0  0  0  0  0  0  0
    4.6827   -2.4964    8.8283 C   0  0  0  0  0  0  0  0  0  0  0  0
    4.9063   -3.8586    9.0042 C   0  0  0  0  0  0  0  0  0  0  0  0
    4.7967   -4.7245    7.9182 C   0  0  0  0  0  0  0  0  0  0  0  0
    4.4550   -4.2291    6.6590 C   0  0  0  0  0  0  0  0  0  0  0  0
    3.0063   -1.2896    4.8044 C   0  0  0  0  0  0  0  0  0  0  0  0
    2.8941    0.2114   -1.0016 N   0  0  0  0  0  0  0  0  0  0  0  0
    2.4773    0.7405   -2.2148 C   0  0  0  0  0  0  0  0  0  0  0  0
    1.3836    1.5019   -2.3742 C   0  0  0  0  0  0  0  0  0  0  0  0
    1.0170    2.0441   -3.6486 C   0  0  0  0  0  0  0  0  0  0  0  0
    1.7367    1.7417   -4.7299 C   0  0  0  0  0  0  0  0  0  0  0  0
    2.8537    0.9227   -4.6698 N   0  0  0  0  0  0  0  0  0  0  0  0
    3.5091    0.5414   -5.8816 C   0  0  0  0  0  0  0  0  0  0  0  0
    2.7519    0.0227   -6.9442 C   0  0  0  0  0  0  0  0  0  0  0  0
    3.3650   -0.3395   -8.1438 C   0  0  0  0  0  0  0  0  0  0  0  0
    4.7353   -0.1512   -8.3050 C   0  0  0  0  0  0  0  0  0  0  0  0
    5.4942    0.3780   -7.2605 C   0  0  0  0  0  0  0  0  0  0  0  0
    4.8875    0.7074   -6.0448 C   0  0  0  0  0  0  0  0  0  0  0  0
    3.3332    0.4298   -3.4340 C   0  0  0  0  0  0  0  0  0  0  0  0
    4.3325   -0.2777   -3.2767 O   0  0  0  0  0  0  0  0  0  0  0  0
    3.6289   -0.9004    1.1050 H   0  0  0  0  0  0  0  0  0  0  0  0
    1.1752   -0.8688    2.3341 H   0  0  0  0  0  0  0  0  0  0  0  0
    2.0234    0.5756    2.9309 H   0  0  0  0  0  0  0  0  0  0  0  0
    4.8854   -3.6498    3.8318 H   0  0  0  0  0  0  0  0  0  0  0  0
    4.1715   -0.9312    7.4544 H   0  0  0  0  0  0  0  0  0  0  0  0
    4.7675   -1.8174    9.6727 H   0  0  0  0  0  0  0  0  0  0  0  0
    5.1605   -4.2471    9.9873 H   0  0  0  0  0  0  0  0  0  0  0  0
    4.9661   -5.7892    8.0554 H   0  0  0  0  0  0  0  0  0  0  0  0
    4.3541   -4.9351    5.8373 H   0  0  0  0  0  0  0  0  0  0  0  0
    2.4684   -0.6320    5.4729 H   0  0  0  0  0  0  0  0  0  0  0  0
    3.8074   -0.2255   -1.0148 H   0  0  0  0  0  0  0  0  0  0  0  0
    0.7411    1.7678   -1.5426 H   0  0  0  0  0  0  0  0  0  0  0  0
    0.1599    2.7041   -3.7005 H   0  0  0  0  0  0  0  0  0  0  0  0
    1.4724    2.1545   -5.7036 H   0  0  0  0  0  0  0  0  0  0  0  0
    1.6851   -0.1524   -6.8250 H   0  0  0  0  0  0  0  0  0  0  0  0
    2.7748   -0.7750   -8.9458 H   0  0  0  0  0  0  0  0  0  0  0  0
    5.2138   -0.4231   -9.2423 H   0  0  0  0  0  0  0  0  0  0  0  0
    6.5618    0.5340   -7.3917 H   0  0  0  0  0  0  0  0  0  0  0  0
    5.4915    1.1294   -5.2458 H   0  0  0  0  0  0  0  0  0  0  0  0
  1  2  2  0  0  0  0
  2  3  1  0  0  0  0
  2 16  1  0  0  0  0
  3  4  1  0  0  0  0
  3 30  1  0  0  0  0
  4  5  1  0  0  0  0
  4 31  1  0  0  0  0
  4 32  1  0  0  0  0
  5  6  2  0  0  0  0
  5 15  1  0  0  0  0
  6  7  1  0  0  0  0
  7  8  1  0  0  0  0
  7 33  1  0  0  0  0
  8  9  1  0  0  0  0
  8 15  2  0  0  0  0
  9 10  2  0  0  0  0
  9 14  1  0  0  0  0
 10 11  1  0  0  0  0
 10 34  1  0  0  0  0
 11 12  2  0  0  0  0
 11 35  1  0  0  0  0
 12 13  1  0  0  0  0
 12 36  1  0  0  0  0
 13 14  2  0  0  0  0
 13 37  1  0  0  0  0
 14 38  1  0  0  0  0
 15 39  1  0  0  0  0
 16 17  1  0  0  0  0
 16 40  1  0  0  0  0
 17 18  2  0  0  0  0
 17 28  1  0  0  0  0
 18 19  1  0  0  0  0
 18 41  1  0  0  0  0
 19 20  2  0  0  0  0
 19 42  1  0  0  0  0
 20 21  1  0  0  0  0
 20 43  1  0  0  0  0
 21 22  1  0  0  0  0
 21 28  1  0  0  0  0
 22 23  2  0  0  0  0
 22 27  1  0  0  0  0
 23 24  1  0  0  0  0
 23 44  1  0  0  0  0
 24 25  2  0  0  0  0
 24 45  1  0  0  0  0
 25 26  1  0  0  0  0
 25 46  1  0  0  0  0
 26 27  2  0  0  0  0
 26 47  1  0  0  0  0
 27 48  1  0  0  0  0
 28 29  2  0  0  0  0
M  END
$$$$
