
 OpenBabel01122422373D

 49 52  0  0  0  0  0  0  0  0999 V2000
    1.0135    0.0970    0.1825 C   0  0  0  0  0  0  0  0  0  0  0  0
    2.4517    0.0862    0.1708 N   0  0  0  0  0  0  0  0  0  0  0  0
    3.1693   -1.0853    0.0981 C   0  0  0  0  0  0  0  0  0  0  0  0
    2.6479   -2.1912    0.0739 O   0  0  0  0  0  0  0  0  0  0  0  0
    4.6574   -0.9675    0.0419 C   0  0  0  0  0  0  0  0  0  0  0  0
    5.4192   -2.1403   -0.0369 C   0  0  0  0  0  0  0  0  0  0  0  0
    6.8129   -2.0740   -0.1085 C   0  0  0  0  0  0  0  0  0  0  0  0
    7.4657   -0.8315   -0.0865 C   0  0  0  0  0  0  0  0  0  0  0  0
    8.9433   -0.8198   -0.1527 C   0  0  0  0  0  0  0  0  0  0  0  0
    9.5458   -1.7013   -0.7412 O   0  0  0  0  0  0  0  0  0  0  0  0
    9.6369    0.2116    0.5833 N   0  0  0  0  0  0  0  0  0  0  0  0
   11.0317    0.2913    0.6194 C   0  0  0  0  0  0  0  0  0  0  0  0
   11.9275   -0.3258   -0.2279 C   0  0  0  0  0  0  0  0  0  0  0  0
   13.2010    0.0449    0.2292 C   0  0  0  0  0  0  0  0  0  0  0  0
   13.1420    0.8404    1.2946 N   0  0  0  0  0  0  0  0  0  0  0  0
   11.8154    0.9928    1.5198 N   0  0  0  0  0  0  0  0  0  0  0  0
   11.4034    1.6063    2.7799 C   0  0  0  0  0  0  0  0  0  0  0  0
   11.2564    3.1132    2.7121 C   0  0  0  0  0  0  0  0  0  0  0  0
   12.3975    3.8715    2.3726 C   0  0  0  0  0  0  0  0  0  0  0  0
   12.3877    5.2607    2.4349 C   0  0  0  0  0  0  0  0  0  0  0  0
   11.2422    5.9220    2.8579 C   0  0  0  0  0  0  0  0  0  0  0  0
   10.0808    5.2103    3.1820 C   0  0  0  0  0  0  0  0  0  0  0  0
    8.9376    5.9133    3.5940 C   0  0  0  0  0  0  0  0  0  0  0  0
    7.7526    5.2470    3.8910 C   0  0  0  0  0  0  0  0  0  0  0  0
    7.7004    3.8649    3.7943 C   0  0  0  0  0  0  0  0  0  0  0  0
    8.8402    3.1473    3.4190 C   0  0  0  0  0  0  0  0  0  0  0  0
   10.0606    3.7906    3.0976 C   0  0  0  0  0  0  0  0  0  0  0  0
    6.7180    0.3425   -0.0216 C   0  0  0  0  0  0  0  0  0  0  0  0
    5.3245    0.2619    0.0489 C   0  0  0  0  0  0  0  0  0  0  0  0
    4.6472    1.4175    0.1251 F   0  0  0  0  0  0  0  0  0  0  0  0
    0.6749    1.1339    0.1229 H   0  0  0  0  0  0  0  0  0  0  0  0
    0.6577   -0.3599    1.1110 H   0  0  0  0  0  0  0  0  0  0  0  0
    0.6355   -0.4692   -0.6735 H   0  0  0  0  0  0  0  0  0  0  0  0
    2.9338    0.9786    0.2224 H   0  0  0  0  0  0  0  0  0  0  0  0
    4.9272   -3.1162   -0.0493 H   0  0  0  0  0  0  0  0  0  0  0  0
    7.3840   -3.0013   -0.1784 H   0  0  0  0  0  0  0  0  0  0  0  0
    9.1113    0.8632    1.1468 H   0  0  0  0  0  0  0  0  0  0  0  0
   11.7220   -0.9692   -1.0707 H   0  0  0  0  0  0  0  0  0  0  0  0
   14.1701   -0.2403   -0.1643 H   0  0  0  0  0  0  0  0  0  0  0  0
   12.1658    1.3572    3.5298 H   0  0  0  0  0  0  0  0  0  0  0  0
   10.4972    1.0892    3.0959 H   0  0  0  0  0  0  0  0  0  0  0  0
   13.3253    3.3805    2.0765 H   0  0  0  0  0  0  0  0  0  0  0  0
   13.2795    5.8264    2.1754 H   0  0  0  0  0  0  0  0  0  0  0  0
   11.2652    7.0086    2.9299 H   0  0  0  0  0  0  0  0  0  0  0  0
    8.9614    6.9984    3.6866 H   0  0  0  0  0  0  0  0  0  0  0  0
    6.8749    5.8096    4.1996 H   0  0  0  0  0  0  0  0  0  0  0  0
    6.7749    3.3426    4.0229 H   0  0  0  0  0  0  0  0  0  0  0  0
    8.7378    2.0688    3.3908 H   0  0  0  0  0  0  0  0  0  0  0  0
    7.1737    1.3273   -0.0589 H   0  0  0  0  0  0  0  0  0  0  0  0
  1  2  1  0  0  0  0
  1 31  1  0  0  0  0
  1 32  1  0  0  0  0
  1 33  1  0  0  0  0
  2  3  1  0  0  0  0
  2 34  1  0  0  0  0
  3  4  2  0  0  0  0
  3  5  1  0  0  0  0
  5  6  2  0  0  0  0
  5 29  1  0  0  0  0
  6  7  1  0  0  0  0
  6 35  1  0  0  0  0
  7  8  2  0  0  0  0
  7 36  1  0  0  0  0
  8  9  1  0  0  0  0
  8 28  1  0  0  0  0
  9 10  2  0  0  0  0
  9 11  1  0  0  0  0
 11 12  1  0  0  0  0
 11 37  1  0  0  0  0
 12 13  2  0  0  0  0
 12 16  1  0  0  0  0
 13 14  1  0  0  0  0
 13 38  1  0  0  0  0
 14 15  2  0  0  0  0
 14 39  1  0  0  0  0
 15 16  1  0  0  0  0
 16 17  1  0  0  0  0
 17 18  1  0  0  0  0
 17 40  1  0  0  0  0
 17 41  1  0  0  0  0
 18 19  2  0  0  0  0
 18 27  1  0  0  0  0
 19 20  1  0  0  0  0
 19 42  1  0  0  0  0
 20 21  2  0  0  0  0
 20 43  1  0  0  0  0
 21 22  1  0  0  0  0
 21 44  1  0  0  0  0
 22 23  2  0  0  0  0
 22 27  1  0  0  0  0
 23 24  1  0  0  0  0
 23 45  1  0  0  0  0
 24 25  2  0  0  0  0
 24 46  1  0  0  0  0
 25 26  1  0  0  0  0
 25 47  1  0  0  0  0
 26 27  2  0  0  0  0
 26 48  1  0  0  0  0
 28 29  2  0  0  0  0
 28 49  1  0  0  0  0
 29 30  1  0  0  0  0
M  END
$$$$
