
 OpenBabel01122422373D

 50 53  0  0  0  0  0  0  0  0999 V2000
    1.0297    0.3962    0.0541 O   0  0  0  0  0  0  0  0  0  0  0  0
    2.2311    0.1638   -0.0216 C   0  0  0  0  0  0  0  0  0  0  0  0
    2.8286   -0.6658   -0.9695 N   0  0  0  0  0  0  0  0  0  0  0  0
    2.1510   -1.4157   -1.9082 C   0  0  0  0  0  0  0  0  0  0  0  0
    0.8831   -1.1829   -2.2786 C   0  0  0  0  0  0  0  0  0  0  0  0
    0.1565   -2.0309   -3.1064 N   0  0  0  0  0  0  0  0  0  0  0  0
   -1.2481   -1.8026   -3.2920 C   0  0  0  0  0  0  0  0  0  0  0  0
   -2.0348   -1.3494   -2.2169 C   0  0  0  0  0  0  0  0  0  0  0  0
   -3.4079   -1.1565   -2.3656 C   0  0  0  0  0  0  0  0  0  0  0  0
   -4.0083   -1.3824   -3.6001 C   0  0  0  0  0  0  0  0  0  0  0  0
   -3.2368   -1.8052   -4.6815 C   0  0  0  0  0  0  0  0  0  0  0  0
   -1.8656   -2.0235   -4.5265 C   0  0  0  0  0  0  0  0  0  0  0  0
    0.7475   -3.1879   -3.6420 C   0  0  0  0  0  0  0  0  0  0  0  0
    0.1977   -4.0541   -4.3191 O   0  0  0  0  0  0  0  0  0  0  0  0
    2.1847   -3.3971   -3.2960 C   0  0  0  0  0  0  0  0  0  0  0  0
    2.8341   -2.5516   -2.4849 C   0  0  0  0  0  0  0  0  0  0  0  0
    3.1510    0.6884    0.9653 C   0  0  0  0  0  0  0  0  0  0  0  0
    2.9354    0.8229    2.3406 C   0  0  0  0  0  0  0  0  0  0  0  0
    1.7739    0.4482    3.1764 C   0  0  0  0  0  0  0  0  0  0  0  0
    1.0805   -0.7493    2.9419 C   0  0  0  0  0  0  0  0  0  0  0  0
   -0.0174   -1.1185    3.7272 C   0  0  0  0  0  0  0  0  0  0  0  0
   -0.4235   -0.3102    4.7839 C   0  0  0  0  0  0  0  0  0  0  0  0
    0.2473    0.8827    5.0335 C   0  0  0  0  0  0  0  0  0  0  0  0
    1.3190    1.2697    4.2201 C   0  0  0  0  0  0  0  0  0  0  0  0
    4.1197    1.3589    2.8206 N   0  0  0  0  0  0  0  0  0  0  0  0
    4.4747    1.6655    4.2009 C   0  0  0  0  0  0  0  0  0  0  0  0
    5.9688    1.5599    4.4951 C   0  0  0  0  0  0  0  0  0  0  0  0
    6.7121    2.5723    3.8205 O   0  0  0  0  0  0  0  0  0  0  0  0
    5.0274    1.6268    1.8503 N   0  0  0  0  0  0  0  0  0  0  0  0
    4.4335    1.2189    0.7342 C   0  0  0  0  0  0  0  0  0  0  0  0
    3.8017   -0.8977   -0.8134 H   0  0  0  0  0  0  0  0  0  0  0  0
    0.3499   -0.3002   -1.9448 H   0  0  0  0  0  0  0  0  0  0  0  0
   -1.5989   -1.1913   -1.2317 H   0  0  0  0  0  0  0  0  0  0  0  0
   -4.0043   -0.8423   -1.5128 H   0  0  0  0  0  0  0  0  0  0  0  0
   -5.0776   -1.2358   -3.7183 H   0  0  0  0  0  0  0  0  0  0  0  0
   -3.7026   -1.9692   -5.6492 H   0  0  0  0  0  0  0  0  0  0  0  0
   -1.2836   -2.3388   -5.3887 H   0  0  0  0  0  0  0  0  0  0  0  0
    2.6487   -4.2810   -3.7157 H   0  0  0  0  0  0  0  0  0  0  0  0
    3.8747   -2.7366   -2.2428 H   0  0  0  0  0  0  0  0  0  0  0  0
    1.3701   -1.4118    2.1305 H   0  0  0  0  0  0  0  0  0  0  0  0
   -0.5566   -2.0366    3.5065 H   0  0  0  0  0  0  0  0  0  0  0  0
   -1.2694   -0.6021    5.4008 H   0  0  0  0  0  0  0  0  0  0  0  0
   -0.0716    1.5216    5.8536 H   0  0  0  0  0  0  0  0  0  0  0  0
    1.7815    2.2327    4.4171 H   0  0  0  0  0  0  0  0  0  0  0  0
    3.9453    0.9599    4.8464 H   0  0  0  0  0  0  0  0  0  0  0  0
    4.1180    2.6850    4.3830 H   0  0  0  0  0  0  0  0  0  0  0  0
    6.3677    0.5819    4.2063 H   0  0  0  0  0  0  0  0  0  0  0  0
    6.1390    1.6957    5.5674 H   0  0  0  0  0  0  0  0  0  0  0  0
    6.4732    2.4759    2.8703 H   0  0  0  0  0  0  0  0  0  0  0  0
    4.9529    1.3378   -0.2086 H   0  0  0  0  0  0  0  0  0  0  0  0
  1  2  2  0  0  0  0
  2  3  1  0  0  0  0
  2 17  1  0  0  0  0
  3  4  1  0  0  0  0
  3 31  1  0  0  0  0
  4  5  2  0  0  0  0
  4 16  1  0  0  0  0
  5  6  1  0  0  0  0
  5 32  1  0  0  0  0
  6  7  1  0  0  0  0
  6 13  1  0  0  0  0
  7  8  2  0  0  0  0
  7 12  1  0  0  0  0
  8  9  1  0  0  0  0
  8 33  1  0  0  0  0
  9 10  2  0  0  0  0
  9 34  1  0  0  0  0
 10 11  1  0  0  0  0
 10 35  1  0  0  0  0
 11 12  2  0  0  0  0
 11 36  1  0  0  0  0
 12 37  1  0  0  0  0
 13 14  2  0  0  0  0
 13 15  1  0  0  0  0
 15 16  2  0  0  0  0
 15 38  1  0  0  0  0
 16 39  1  0  0  0  0
 17 18  2  0  0  0  0
 17 30  1  0  0  0  0
 18 19  1  0  0  0  0
 18 25  1  0  0  0  0
 19 20  2  0  0  0  0
 19 24  1  0  0  0  0
 20 21  1  0  0  0  0
 20 40  1  0  0  0  0
 21 22  2  0  0  0  0
 21 41  1  0  0  0  0
 22 23  1  0  0  0  0
 22 42  1  0  0  0  0
 23 24  2  0  0  0  0
 23 43  1  0  0  0  0
 24 44  1  0  0  0  0
 25 26  1  0  0  0  0
 25 29  1  0  0  0  0
 26 27  1  0  0  0  0
 26 45  1  0  0  0  0
 26 46  1  0  0  0  0
 27 28  1  0  0  0  0
 27 47  1  0  0  0  0
 27 48  1  0  0  0  0
 28 49  1  0  0  0  0
 29 30  2  0  0  0  0
 30 50  1  0  0  0  0
M  END
$$$$
