
 OpenBabel01122422373D

 42 45  0  0  0  0  0  0  0  0999 V2000
    0.9120   -0.2574   -0.0335 O   0  0  0  0  0  0  0  0  0  0  0  0
    2.1169   -0.0256   -0.0040 C   0  0  0  0  0  0  0  0  0  0  0  0
    2.7221    1.0475    0.6277 N   0  0  0  0  0  0  0  0  0  0  0  0
    2.0887    2.0421    1.4028 C   0  0  0  0  0  0  0  0  0  0  0  0
    0.7100    2.1063    1.5927 C   0  0  0  0  0  0  0  0  0  0  0  0
    0.1526    3.0880    2.4102 C   0  0  0  0  0  0  0  0  0  0  0  0
    0.9728    4.0169    3.0459 C   0  0  0  0  0  0  0  0  0  0  0  0
    2.3586    3.9920    2.8630 C   0  0  0  0  0  0  0  0  0  0  0  0
    3.1860    4.9345    3.4997 N   0  0  0  0  0  0  0  0  0  0  0  0
    4.5362    4.9797    3.2517 N   0  0  0  0  0  0  0  0  0  0  0  0
    5.0551    5.9225    3.9275 N   0  0  0  0  0  0  0  0  0  0  0  0
    4.0806    6.5314    4.6469 N   0  0  0  0  0  0  0  0  0  0  0  0
    2.8630    5.9311    4.4118 C   0  0  0  0  0  0  0  0  0  0  0  0
    1.8050    6.2502    4.9249 O   0  0  0  0  0  0  0  0  0  0  0  0
    2.9049    2.9986    2.0294 C   0  0  0  0  0  0  0  0  0  0  0  0
    3.0147   -0.9954   -0.6903 C   0  0  0  0  0  0  0  0  0  0  0  0
    2.4331   -2.0523   -1.4011 C   0  0  0  0  0  0  0  0  0  0  0  0
    3.2324   -3.0206   -2.0180 C   0  0  0  0  0  0  0  0  0  0  0  0
    4.6346   -2.9785   -1.9280 C   0  0  0  0  0  0  0  0  0  0  0  0
    5.4809   -4.0458   -2.5030 C   0  0  0  0  0  0  0  0  0  0  0  0
    6.7591   -3.7724   -3.0238 C   0  0  0  0  0  0  0  0  0  0  0  0
    7.5835   -4.7932   -3.5056 C   0  0  0  0  0  0  0  0  0  0  0  0
    7.1390   -6.1111   -3.4975 C   0  0  0  0  0  0  0  0  0  0  0  0
    5.8714   -6.4082   -3.0091 C   0  0  0  0  0  0  0  0  0  0  0  0
    5.0555   -5.3875   -2.5136 C   0  0  0  0  0  0  0  0  0  0  0  0
    5.2011   -1.8980   -1.2306 C   0  0  0  0  0  0  0  0  0  0  0  0
    4.4031   -0.9252   -0.6294 C   0  0  0  0  0  0  0  0  0  0  0  0
    5.0192    0.0697    0.0281 F   0  0  0  0  0  0  0  0  0  0  0  0
    3.7334    1.1066    0.5735 H   0  0  0  0  0  0  0  0  0  0  0  0
    0.0305    1.4050    1.1209 H   0  0  0  0  0  0  0  0  0  0  0  0
   -0.9234    3.1210    2.5515 H   0  0  0  0  0  0  0  0  0  0  0  0
    0.4929    4.7595    3.6771 H   0  0  0  0  0  0  0  0  0  0  0  0
    4.2568    7.3060    5.2662 H   0  0  0  0  0  0  0  0  0  0  0  0
    3.9821    2.9543    1.8795 H   0  0  0  0  0  0  0  0  0  0  0  0
    1.3489   -2.1393   -1.4696 H   0  0  0  0  0  0  0  0  0  0  0  0
    2.7339   -3.8194   -2.5651 H   0  0  0  0  0  0  0  0  0  0  0  0
    7.1374   -2.7532   -3.0585 H   0  0  0  0  0  0  0  0  0  0  0  0
    8.5744   -4.5552   -3.8834 H   0  0  0  0  0  0  0  0  0  0  0  0
    7.7803   -6.9056   -3.8681 H   0  0  0  0  0  0  0  0  0  0  0  0
    5.5174   -7.4358   -2.9999 H   0  0  0  0  0  0  0  0  0  0  0  0
    4.0832   -5.6641   -2.1113 H   0  0  0  0  0  0  0  0  0  0  0  0
    6.2779   -1.8089   -1.1135 H   0  0  0  0  0  0  0  0  0  0  0  0
  1  2  2  0  0  0  0
  2  3  1  0  0  0  0
  2 16  1  0  0  0  0
  3  4  1  0  0  0  0
  3 29  1  0  0  0  0
  4  5  2  0  0  0  0
  4 15  1  0  0  0  0
  5  6  1  0  0  0  0
  5 30  1  0  0  0  0
  6  7  2  0  0  0  0
  6 31  1  0  0  0  0
  7  8  1  0  0  0  0
  7 32  1  0  0  0  0
  8  9  1  0  0  0  0
  8 15  2  0  0  0  0
  9 10  1  0  0  0  0
  9 13  1  0  0  0  0
 10 11  2  0  0  0  0
 11 12  1  0  0  0  0
 12 13  1  0  0  0  0
 12 33  1  0  0  0  0
 13 14  2  0  0  0  0
 15 34  1  0  0  0  0
 16 17  2  0  0  0  0
 16 27  1  0  0  0  0
 17 18  1  0  0  0  0
 17 35  1  0  0  0  0
 18 19  2  0  0  0  0
 18 36  1  0  0  0  0
 19 20  1  0  0  0  0
 19 26  1  0  0  0  0
 20 21  2  0  0  0  0
 20 25  1  0  0  0  0
 21 22  1  0  0  0  0
 21 37  1  0  0  0  0
 22 23  2  0  0  0  0
 22 38  1  0  0  0  0
 23 24  1  0  0  0  0
 23 39  1  0  0  0  0
 24 25  2  0  0  0  0
 24 40  1  0  0  0  0
 25 41  1  0  0  0  0
 26 27  2  0  0  0  0
 26 42  1  0  0  0  0
 27 28  1  0  0  0  0
M  END
$$$$
