
 OpenBabel01122422373D

 46 49  0  0  0  0  0  0  0  0999 V2000
    2.9381    2.8848    6.4910 N   0  0  0  0  0  0  0  0  0  0  0  0
    2.9654    2.4111    5.4321 C   0  0  0  0  0  0  0  0  0  0  0  0
    3.0389    1.8101    4.1314 C   0  0  0  0  0  0  0  0  0  0  0  0
    3.4506    2.5613    3.0282 C   0  0  0  0  0  0  0  0  0  0  0  0
    3.6163    1.9472    1.7825 C   0  0  0  0  0  0  0  0  0  0  0  0
    3.4112    0.5657    1.6265 C   0  0  0  0  0  0  0  0  0  0  0  0
    3.6779   -0.0719    0.2717 C   0  0  0  0  0  0  0  0  0  0  0  0
    4.2272   -1.4400    0.3096 N   0  0  0  0  0  0  0  0  0  0  0  0
    3.5120   -2.6387    0.0944 C   0  0  0  0  0  0  0  0  0  0  0  0
    4.0970   -3.7208    0.1879 O   0  0  0  0  0  0  0  0  0  0  0  0
    2.0826   -2.6339   -0.1849 C   0  0  0  0  0  0  0  0  0  0  0  0
    1.0720   -1.8382    0.3394 C   0  0  0  0  0  0  0  0  0  0  0  0
   -0.1347   -2.4015   -0.0714 C   0  0  0  0  0  0  0  0  0  0  0  0
    0.0520   -3.4794   -0.8147 N   0  0  0  0  0  0  0  0  0  0  0  0
    1.4072   -3.6215   -0.9204 N   0  0  0  0  0  0  0  0  0  0  0  0
    1.8841   -4.6972   -1.7306 C   0  0  0  0  0  0  0  0  0  0  0  0
    3.1532   -4.7108   -2.3084 C   0  0  0  0  0  0  0  0  0  0  0  0
    3.5244   -5.8287   -3.0417 C   0  0  0  0  0  0  0  0  0  0  0  0
    2.7256   -6.8943   -3.2612 N   0  0  0  0  0  0  0  0  0  0  0  0
    1.4920   -6.8444   -2.7215 C   0  0  0  0  0  0  0  0  0  0  0  0
    1.0262   -5.7793   -1.9757 C   0  0  0  0  0  0  0  0  0  0  0  0
    5.6647   -1.5082    0.3479 C   0  0  0  0  0  0  0  0  0  0  0  0
    6.3759   -2.1136   -0.6992 C   0  0  0  0  0  0  0  0  0  0  0  0
    7.7738   -2.1380   -0.6913 C   0  0  0  0  0  0  0  0  0  0  0  0
    8.4747   -1.5800    0.3745 C   0  0  0  0  0  0  0  0  0  0  0  0
    7.7784   -0.9892    1.4267 C   0  0  0  0  0  0  0  0  0  0  0  0
    6.3810   -0.9381    1.4060 C   0  0  0  0  0  0  0  0  0  0  0  0
    2.9537   -0.1658    2.7341 C   0  0  0  0  0  0  0  0  0  0  0  0
    2.7519    0.4531    3.9712 C   0  0  0  0  0  0  0  0  0  0  0  0
    3.6661    3.6232    3.1350 H   0  0  0  0  0  0  0  0  0  0  0  0
    3.9443    2.5551    0.9405 H   0  0  0  0  0  0  0  0  0  0  0  0
    4.4039    0.5504   -0.2719 H   0  0  0  0  0  0  0  0  0  0  0  0
    2.7716   -0.0390   -0.3380 H   0  0  0  0  0  0  0  0  0  0  0  0
    1.1547   -0.9990    1.0074 H   0  0  0  0  0  0  0  0  0  0  0  0
   -1.1443   -2.0886    0.1644 H   0  0  0  0  0  0  0  0  0  0  0  0
    3.8537   -3.8950   -2.2201 H   0  0  0  0  0  0  0  0  0  0  0  0
    4.5114   -5.8965   -3.4923 H   0  0  0  0  0  0  0  0  0  0  0  0
    0.8650   -7.7119   -2.9047 H   0  0  0  0  0  0  0  0  0  0  0  0
    0.0236   -5.8212   -1.5557 H   0  0  0  0  0  0  0  0  0  0  0  0
    5.8544   -2.5508   -1.5451 H   0  0  0  0  0  0  0  0  0  0  0  0
    8.3145   -2.5985   -1.5147 H   0  0  0  0  0  0  0  0  0  0  0  0
    9.5614   -1.6140    0.3904 H   0  0  0  0  0  0  0  0  0  0  0  0
    8.3228   -0.5769    2.2727 H   0  0  0  0  0  0  0  0  0  0  0  0
    5.8689   -0.4989    2.2561 H   0  0  0  0  0  0  0  0  0  0  0  0
    2.7715   -1.2360    2.6625 H   0  0  0  0  0  0  0  0  0  0  0  0
    2.3988   -0.1400    4.8136 H   0  0  0  0  0  0  0  0  0  0  0  0
  1  2  3  0  0  0  0
  2  3  1  0  0  0  0
  3  4  2  0  0  0  0
  3 29  1  0  0  0  0
  4  5  1  0  0  0  0
  4 30  1  0  0  0  0
  5  6  2  0  0  0  0
  5 31  1  0  0  0  0
  6  7  1  0  0  0  0
  6 28  1  0  0  0  0
  7  8  1  0  0  0  0
  7 32  1  0  0  0  0
  7 33  1  0  0  0  0
  8  9  1  0  0  0  0
  8 22  1  0  0  0  0
  9 10  2  0  0  0  0
  9 11  1  0  0  0  0
 11 12  2  0  0  0  0
 11 15  1  0  0  0  0
 12 13  1  0  0  0  0
 12 34  1  0  0  0  0
 13 14  2  0  0  0  0
 13 35  1  0  0  0  0
 14 15  1  0  0  0  0
 15 16  1  0  0  0  0
 16 17  2  0  0  0  0
 16 21  1  0  0  0  0
 17 18  1  0  0  0  0
 17 36  1  0  0  0  0
 18 19  2  0  0  0  0
 18 37  1  0  0  0  0
 19 20  1  0  0  0  0
 20 21  2  0  0  0  0
 20 38  1  0  0  0  0
 21 39  1  0  0  0  0
 22 23  2  0  0  0  0
 22 27  1  0  0  0  0
 23 24  1  0  0  0  0
 23 40  1  0  0  0  0
 24 25  2  0  0  0  0
 24 41  1  0  0  0  0
 25 26  1  0  0  0  0
 25 42  1  0  0  0  0
 26 27  2  0  0  0  0
 26 43  1  0  0  0  0
 27 44  1  0  0  0  0
 28 29  2  0  0  0  0
 28 45  1  0  0  0  0
 29 46  1  0  0  0  0
M  END
$$$$
