
 OpenBabel01122422373D

 44 47  0  0  0  0  0  0  0  0999 V2000
    1.0429    0.1002   -0.0076 O   0  0  0  0  0  0  0  0  0  0  0  0
    2.2721    0.1108   -0.0701 C   0  0  0  0  0  0  0  0  0  0  0  0
    2.9354    0.0161   -1.2741 N   0  0  0  0  0  0  0  0  0  0  0  0
    2.2259   -0.1040   -2.5421 C   0  0  0  0  0  0  0  0  0  0  0  0
    3.1788   -0.1888   -3.7026 C   0  0  0  0  0  0  0  0  0  0  0  0
    3.6646   -1.4156   -4.1697 C   0  0  0  0  0  0  0  0  0  0  0  0
    4.5545   -1.4695   -5.2612 C   0  0  0  0  0  0  0  0  0  0  0  0
    4.9740   -0.2892   -5.8978 C   0  0  0  0  0  0  0  0  0  0  0  0
    5.8762   -0.3892   -6.9444 O   0  0  0  0  0  0  0  0  0  0  0  0
    6.7768   -1.4357   -6.9327 C   0  0  0  0  0  0  0  0  0  0  0  0
    7.2691   -2.0236   -5.7631 C   0  0  0  0  0  0  0  0  0  0  0  0
    8.2613   -3.0018   -5.8491 C   0  0  0  0  0  0  0  0  0  0  0  0
    8.6715   -3.4152   -7.1052 C   0  0  0  0  0  0  0  0  0  0  0  0
    8.1820   -2.9068   -8.2576 N   0  0  0  0  0  0  0  0  0  0  0  0
    7.2482   -1.9269   -8.1410 C   0  0  0  0  0  0  0  0  0  0  0  0
    4.4445    0.9137   -5.4319 C   0  0  0  0  0  0  0  0  0  0  0  0
    4.7347    2.0894   -5.9950 F   0  0  0  0  0  0  0  0  0  0  0  0
    3.5783    0.9722   -4.3537 C   0  0  0  0  0  0  0  0  0  0  0  0
    3.1062    0.1409    1.2014 C   0  0  0  0  0  0  0  0  0  0  0  0
    2.4488   -0.5135    2.3083 C   0  0  0  0  0  0  0  0  0  0  0  0
    3.0654   -0.4964    3.5579 C   0  0  0  0  0  0  0  0  0  0  0  0
    2.6198   -1.1005    4.6655 O   0  0  0  0  0  0  0  0  0  0  0  0
    4.2099    0.1128    3.7288 N   0  0  0  0  0  0  0  0  0  0  0  0
    4.7655    0.7797    2.6967 C   0  0  0  0  0  0  0  0  0  0  0  0
    5.9707    1.3402    2.9775 C   0  0  0  0  0  0  0  0  0  0  0  0
    6.9562    1.6606    2.1439 N   0  0  0  0  0  0  0  0  0  0  0  0
    6.7122    2.2933    0.9907 C   0  0  0  0  0  0  0  0  0  0  0  0
    5.5146    1.7088    0.5637 C   0  0  0  0  0  0  0  0  0  0  0  0
    4.4136    0.8415    1.3635 C   0  0  0  0  0  0  0  0  0  0  0  0
    3.9430   -0.0253   -1.2856 H   0  0  0  0  0  0  0  0  0  0  0  0
    1.5730    0.7663   -2.6714 H   0  0  0  0  0  0  0  0  0  0  0  0
    1.5745   -0.9895   -2.5372 H   0  0  0  0  0  0  0  0  0  0  0  0
    3.3538   -2.3318   -3.6687 H   0  0  0  0  0  0  0  0  0  0  0  0
    4.9022   -2.4449   -5.5952 H   0  0  0  0  0  0  0  0  0  0  0  0
    6.9775   -1.6511   -4.7855 H   0  0  0  0  0  0  0  0  0  0  0  0
    8.7215   -3.4204   -4.9608 H   0  0  0  0  0  0  0  0  0  0  0  0
    9.4205   -4.1961   -7.2098 H   0  0  0  0  0  0  0  0  0  0  0  0
    6.8869   -1.5170   -9.0776 H   0  0  0  0  0  0  0  0  0  0  0  0
    3.2375    1.9543   -4.0455 H   0  0  0  0  0  0  0  0  0  0  0  0
    1.4604   -0.9864    2.2480 H   0  0  0  0  0  0  0  0  0  0  0  0
    1.7685   -1.5493    4.5462 H   0  0  0  0  0  0  0  0  0  0  0  0
    6.2945    1.3438    4.0587 H   0  0  0  0  0  0  0  0  0  0  0  0
    7.6964    2.7637    1.3708 H   0  0  0  0  0  0  0  0  0  0  0  0
    5.1474    1.8101   -0.4531 H   0  0  0  0  0  0  0  0  0  0  0  0
  1  2  2  0  0  0  0
  2  3  1  0  0  0  0
  2 19  1  0  0  0  0
  3  4  1  0  0  0  0
  3 30  1  0  0  0  0
  4  5  1  0  0  0  0
  4 31  1  0  0  0  0
  4 32  1  0  0  0  0
  5  6  2  0  0  0  0
  5 18  1  0  0  0  0
  6  7  1  0  0  0  0
  6 33  1  0  0  0  0
  7  8  2  0  0  0  0
  7 34  1  0  0  0  0
  8  9  1  0  0  0  0
  8 16  1  0  0  0  0
  9 10  1  0  0  0  0
 10 11  2  0  0  0  0
 10 15  1  0  0  0  0
 11 12  1  0  0  0  0
 11 35  1  0  0  0  0
 12 13  2  0  0  0  0
 12 36  1  0  0  0  0
 13 14  1  0  0  0  0
 13 37  1  0  0  0  0
 14 15  2  0  0  0  0
 15 38  1  0  0  0  0
 16 17  1  0  0  0  0
 16 18  2  0  0  0  0
 18 39  1  0  0  0  0
 19 20  2  0  0  0  0
 19 29  1  0  0  0  0
 20 21  1  0  0  0  0
 20 40  1  0  0  0  0
 21 22  1  0  0  0  0
 21 23  2  0  0  0  0
 22 41  1  0  0  0  0
 23 24  1  0  0  0  0
 24 25  2  0  0  0  0
 24 29  1  0  0  0  0
 25 26  1  0  0  0  0
 25 42  1  0  0  0  0
 26 27  2  0  0  0  0
 27 28  1  0  0  0  0
 27 43  1  0  0  0  0
 28 29  2  0  0  0  0
 28 44  1  0  0  0  0
M  END
$$$$
