
 OpenBabel01122422373D

 46 49  0  0  1  0  0  0  0  0999 V2000
    2.2974   -1.2468    0.6602 N   0  0  0  0  0  0  0  0  0  0  0  0
    2.5077   -0.0063    0.1174 C   0  0  0  0  0  0  0  0  0  0  0  0
    2.1640    1.0055    0.7284 O   0  0  0  0  0  0  0  0  0  0  0  0
    3.2505    0.0168   -1.2412 C   0  0  3  0  0  0  0  0  0  0  0  0
    2.8600    1.1806   -2.0175 N   0  0  0  0  0  0  0  0  0  0  0  0
    1.7156    1.1873   -2.7722 C   0  0  0  0  0  0  0  0  0  0  0  0
    0.9888    0.2027   -2.8494 O   0  0  0  0  0  0  0  0  0  0  0  0
    1.4948    2.4214   -3.4797 C   0  0  0  0  0  0  0  0  0  0  0  0
    1.6295    3.7086   -2.9864 C   0  0  0  0  0  0  0  0  0  0  0  0
    1.2785    4.6472   -3.9098 N   0  0  0  0  0  0  0  0  0  0  0  0
    0.9050    3.9543   -4.9593 C   0  0  0  0  0  0  0  0  0  0  0  0
    1.0050    2.5885   -4.7718 N   0  0  0  0  0  0  0  0  0  0  0  0
    0.7033    1.6099   -5.7654 C   0  0  0  0  0  0  0  0  0  0  0  0
    1.3330    0.3565   -5.7609 C   0  0  0  0  0  0  0  0  0  0  0  0
    0.9942   -0.6083   -6.7127 C   0  0  0  0  0  0  0  0  0  0  0  0
    0.0468   -0.3133   -7.6803 C   0  0  0  0  0  0  0  0  0  0  0  0
   -0.2806   -1.2432   -8.5882 F   0  0  0  0  0  0  0  0  0  0  0  0
   -0.5660    0.9317   -7.7225 C   0  0  0  0  0  0  0  0  0  0  0  0
   -0.2370    1.8993   -6.7689 C   0  0  0  0  0  0  0  0  0  0  0  0
    4.7580    0.0212   -1.0511 C   0  0  0  0  0  0  0  0  0  0  0  0
    5.3905    1.0240   -0.3012 C   0  0  0  0  0  0  0  0  0  0  0  0
    6.7782    1.0341   -0.1532 C   0  0  0  0  0  0  0  0  0  0  0  0
    7.5679    0.0359   -0.7399 C   0  0  0  0  0  0  0  0  0  0  0  0
    8.9627    0.0238   -0.5822 C   0  0  0  0  0  0  0  0  0  0  0  0
    9.7362   -0.9829   -1.1609 C   0  0  0  0  0  0  0  0  0  0  0  0
    9.1259   -1.9850   -1.9093 C   0  0  0  0  0  0  0  0  0  0  0  0
    7.7405   -1.9818   -2.0820 C   0  0  0  0  0  0  0  0  0  0  0  0
    6.9466   -0.9800   -1.5009 C   0  0  0  0  0  0  0  0  0  0  0  0
    5.5494   -0.9683   -1.6563 C   0  0  0  0  0  0  0  0  0  0  0  0
    1.7743   -1.2907    1.5237 H   0  0  0  0  0  0  0  0  0  0  0  0
    2.4248   -2.1010    0.1350 H   0  0  0  0  0  0  0  0  0  0  0  0
    2.9467   -0.8801   -1.7957 H   0  0  0  0  0  0  0  0  0  0  0  0
    3.3788    2.0359   -1.8837 H   0  0  0  0  0  0  0  0  0  0  0  0
    1.9393    4.0024   -1.9905 H   0  0  0  0  0  0  0  0  0  0  0  0
    0.6016    4.3940   -5.9001 H   0  0  0  0  0  0  0  0  0  0  0  0
    2.1094    0.1000   -5.0481 H   0  0  0  0  0  0  0  0  0  0  0  0
    1.4653   -1.5854   -6.6973 H   0  0  0  0  0  0  0  0  0  0  0  0
   -1.3086    1.1370   -8.4882 H   0  0  0  0  0  0  0  0  0  0  0  0
   -0.7672    2.8479   -6.8065 H   0  0  0  0  0  0  0  0  0  0  0  0
    4.8065    1.8081    0.1798 H   0  0  0  0  0  0  0  0  0  0  0  0
    7.2383    1.8275    0.4321 H   0  0  0  0  0  0  0  0  0  0  0  0
    9.4575    0.7986   -0.0006 H   0  0  0  0  0  0  0  0  0  0  0  0
   10.8146   -0.9841   -1.0253 H   0  0  0  0  0  0  0  0  0  0  0  0
    9.7276   -2.7707   -2.3583 H   0  0  0  0  0  0  0  0  0  0  0  0
    7.2845   -2.7742   -2.6713 H   0  0  0  0  0  0  0  0  0  0  0  0
    5.0751   -1.7429   -2.2567 H   0  0  0  0  0  0  0  0  0  0  0  0
  1  2  1  0  0  0  0
  1 30  1  0  0  0  0
  1 31  1  0  0  0  0
  2  3  2  0  0  0  0
  2  4  1  0  0  0  0
  4  5  1  0  0  0  0
  4 20  1  0  0  0  0
  4 32  1  0  0  0  0
  5  6  1  0  0  0  0
  5 33  1  0  0  0  0
  6  7  2  0  0  0  0
  6  8  1  0  0  0  0
  8  9  2  0  0  0  0
  8 12  1  0  0  0  0
  9 10  1  0  0  0  0
  9 34  1  0  0  0  0
 10 11  2  0  0  0  0
 11 12  1  0  0  0  0
 11 35  1  0  0  0  0
 12 13  1  0  0  0  0
 13 14  2  0  0  0  0
 13 19  1  0  0  0  0
 14 15  1  0  0  0  0
 14 36  1  0  0  0  0
 15 16  2  0  0  0  0
 15 37  1  0  0  0  0
 16 17  1  0  0  0  0
 16 18  1  0  0  0  0
 18 19  2  0  0  0  0
 18 38  1  0  0  0  0
 19 39  1  0  0  0  0
 20 21  2  0  0  0  0
 20 29  1  0  0  0  0
 21 22  1  0  0  0  0
 21 40  1  0  0  0  0
 22 23  2  0  0  0  0
 22 41  1  0  0  0  0
 23 24  1  0  0  0  0
 23 28  1  0  0  0  0
 24 25  2  0  0  0  0
 24 42  1  0  0  0  0
 25 26  1  0  0  0  0
 25 43  1  0  0  0  0
 26 27  2  0  0  0  0
 26 44  1  0  0  0  0
 27 28  1  0  0  0  0
 27 45  1  0  0  0  0
 28 29  2  0  0  0  0
 29 46  1  0  0  0  0
M  END
$$$$
