
 OpenBabel01122422373D

 46 49  0  0  0  0  0  0  0  0999 V2000
    3.3593    1.5147   -1.4975 O   0  0  0  0  0  0  0  0  0  0  0  0
    2.6495    1.1891   -0.5598 C   0  0  0  0  0  0  0  0  0  0  0  0
    3.0614    0.8486    0.6829 O   0  0  0  0  0  0  0  0  0  0  0  0
    4.4786    0.8393    0.9301 C   0  0  0  0  0  0  0  0  0  0  0  0
    4.7961    1.8215    2.0197 C   0  0  0  0  0  0  0  0  0  0  0  0
    4.5560    3.1904    1.8670 C   0  0  0  0  0  0  0  0  0  0  0  0
    4.8680    4.0723    2.9030 C   0  0  0  0  0  0  0  0  0  0  0  0
    5.3975    3.5508    4.0715 C   0  0  0  0  0  0  0  0  0  0  0  0
    5.6972    4.4348    5.0920 O   0  0  0  0  0  0  0  0  0  0  0  0
    5.7014    3.7693    6.3608 C   0  0  0  0  0  0  0  0  0  0  0  0
    6.1072    4.6922    7.4911 C   0  0  0  0  0  0  0  0  0  0  0  0
    5.5430    4.5121    8.7649 C   0  0  0  0  0  0  0  0  0  0  0  0
    5.9773    5.2721    9.8521 C   0  0  0  0  0  0  0  0  0  0  0  0
    6.9884    6.2143    9.6819 C   0  0  0  0  0  0  0  0  0  0  0  0
    7.5604    6.4008    8.4243 C   0  0  0  0  0  0  0  0  0  0  0  0
    7.1257    5.6415    7.3347 C   0  0  0  0  0  0  0  0  0  0  0  0
    5.6586    2.2374    4.2444 N   0  0  0  0  0  0  0  0  0  0  0  0
    5.3610    1.4087    3.2201 C   0  0  0  0  0  0  0  0  0  0  0  0
    1.1676    1.0354   -0.6812 C   0  0  0  0  0  0  0  0  0  0  0  0
    0.3972    0.6574    0.4329 C   0  0  0  0  0  0  0  0  0  0  0  0
   -0.9141    0.2238    0.2658 C   0  0  0  0  0  0  0  0  0  0  0  0
   -1.4790    0.2828   -0.9950 C   0  0  0  0  0  0  0  0  0  0  0  0
   -2.7632   -0.3333   -1.3069 C   0  0  0  0  0  0  0  0  0  0  0  0
   -3.5474    0.1111   -2.2356 N   0  0  0  0  0  0  0  0  0  0  0  0
   -3.0464    1.1396   -2.9881 N   0  0  0  0  0  0  0  0  0  0  0  0
   -1.6897    1.3792   -3.1442 C   0  0  0  0  0  0  0  0  0  0  0  0
   -1.2225    2.0344   -4.0805 O   0  0  0  0  0  0  0  0  0  0  0  0
   -0.8276    0.9170   -2.0367 C   0  0  0  0  0  0  0  0  0  0  0  0
    0.5382    1.2180   -1.9297 C   0  0  0  0  0  0  0  0  0  0  0  0
    5.0814    1.0513    0.0387 H   0  0  0  0  0  0  0  0  0  0  0  0
    4.7373   -0.1784    1.2532 H   0  0  0  0  0  0  0  0  0  0  0  0
    4.1283    3.5726    0.9427 H   0  0  0  0  0  0  0  0  0  0  0  0
    4.6860    5.1360    2.8011 H   0  0  0  0  0  0  0  0  0  0  0  0
    6.4125    2.9336    6.3770 H   0  0  0  0  0  0  0  0  0  0  0  0
    4.6864    3.3970    6.5530 H   0  0  0  0  0  0  0  0  0  0  0  0
    4.7693    3.7632    8.9212 H   0  0  0  0  0  0  0  0  0  0  0  0
    5.5349    5.1194   10.8330 H   0  0  0  0  0  0  0  0  0  0  0  0
    7.3363    6.7974   10.5305 H   0  0  0  0  0  0  0  0  0  0  0  0
    8.3552    7.1306    8.2935 H   0  0  0  0  0  0  0  0  0  0  0  0
    7.5978    5.7830    6.3648 H   0  0  0  0  0  0  0  0  0  0  0  0
    5.6024    0.3659    3.4097 H   0  0  0  0  0  0  0  0  0  0  0  0
    0.8264    0.6646    1.4315 H   0  0  0  0  0  0  0  0  0  0  0  0
   -1.4911   -0.1233    1.1163 H   0  0  0  0  0  0  0  0  0  0  0  0
   -3.0395   -1.2428   -0.7461 H   0  0  0  0  0  0  0  0  0  0  0  0
   -3.6791    1.5326   -3.6784 H   0  0  0  0  0  0  0  0  0  0  0  0
    1.0846    1.5888   -2.7875 H   0  0  0  0  0  0  0  0  0  0  0  0
  1  2  2  0  0  0  0
  2  3  1  0  0  0  0
  2 19  1  0  0  0  0
  3  4  1  0  0  0  0
  4  5  1  0  0  0  0
  4 30  1  0  0  0  0
  4 31  1  0  0  0  0
  5  6  2  0  0  0  0
  5 18  1  0  0  0  0
  6  7  1  0  0  0  0
  6 32  1  0  0  0  0
  7  8  2  0  0  0  0
  7 33  1  0  0  0  0
  8  9  1  0  0  0  0
  8 17  1  0  0  0  0
  9 10  1  0  0  0  0
 10 11  1  0  0  0  0
 10 34  1  0  0  0  0
 10 35  1  0  0  0  0
 11 12  2  0  0  0  0
 11 16  1  0  0  0  0
 12 13  1  0  0  0  0
 12 36  1  0  0  0  0
 13 14  2  0  0  0  0
 13 37  1  0  0  0  0
 14 15  1  0  0  0  0
 14 38  1  0  0  0  0
 15 16  2  0  0  0  0
 15 39  1  0  0  0  0
 16 40  1  0  0  0  0
 17 18  2  0  0  0  0
 18 41  1  0  0  0  0
 19 20  2  0  0  0  0
 19 29  1  0  0  0  0
 20 21  1  0  0  0  0
 20 42  1  0  0  0  0
 21 22  2  0  0  0  0
 21 43  1  0  0  0  0
 22 23  1  0  0  0  0
 22 28  1  0  0  0  0
 23 24  2  0  0  0  0
 23 44  1  0  0  0  0
 24 25  1  0  0  0  0
 25 26  1  0  0  0  0
 25 45  1  0  0  0  0
 26 27  2  0  0  0  0
 26 28  1  0  0  0  0
 28 29  2  0  0  0  0
 29 46  1  0  0  0  0
M  END
$$$$
