
 OpenBabel01122422373D

 46 49  0  0  0  0  0  0  0  0999 V2000
    1.0447    0.3390    0.0805 O   0  0  0  0  0  0  0  0  0  0  0  0
    2.2355    0.0446    0.0679 C   0  0  0  0  0  0  0  0  0  0  0  0
    2.8619   -0.8355   -0.7883 N   0  0  0  0  0  0  0  0  0  0  0  0
    2.1904   -1.5698   -1.7907 C   0  0  0  0  0  0  0  0  0  0  0  0
    0.9328   -1.2194   -2.2834 C   0  0  0  0  0  0  0  0  0  0  0  0
    0.2855   -2.0432   -3.1994 C   0  0  0  0  0  0  0  0  0  0  0  0
    0.9234   -3.2021   -3.5962 C   0  0  0  0  0  0  0  0  0  0  0  0
    0.2434   -4.0120   -4.4770 O   0  0  0  0  0  0  0  0  0  0  0  0
    0.6518   -5.3774   -4.3501 C   0  0  0  0  0  0  0  0  0  0  0  0
   -0.1134   -6.2206   -5.3439 C   0  0  0  0  0  0  0  0  0  0  0  0
    0.0146   -5.9735   -6.7106 C   0  0  0  0  0  0  0  0  0  0  0  0
   -0.6870   -6.7722   -7.6079 C   0  0  0  0  0  0  0  0  0  0  0  0
   -1.4924   -7.7948   -7.1222 C   0  0  0  0  0  0  0  0  0  0  0  0
   -1.5588   -7.9806   -5.7520 C   0  0  0  0  0  0  0  0  0  0  0  0
   -0.8895   -7.2229   -4.8565 N   0  0  0  0  0  0  0  0  0  0  0  0
    2.1680   -3.5469   -3.2007 N   0  0  0  0  0  0  0  0  0  0  0  0
    2.7728   -2.7216   -2.3142 C   0  0  0  0  0  0  0  0  0  0  0  0
    3.1306    0.6209    1.0966 C   0  0  0  0  0  0  0  0  0  0  0  0
    2.6220    1.0257    2.2634 C   0  0  0  0  0  0  0  0  0  0  0  0
    3.7360    1.7018    2.9431 C   0  0  0  0  0  0  0  0  0  0  0  0
    3.6085    2.2063    4.0486 O   0  0  0  0  0  0  0  0  0  0  0  0
    4.8321    1.6458    2.0751 N   0  0  0  0  0  0  0  0  0  0  0  0
    6.1475    2.1075    2.2865 C   0  0  0  0  0  0  0  0  0  0  0  0
    6.5082    2.7010    3.5045 C   0  0  0  0  0  0  0  0  0  0  0  0
    7.8222    3.1025    3.7523 C   0  0  0  0  0  0  0  0  0  0  0  0
    8.7943    2.9391    2.7727 C   0  0  0  0  0  0  0  0  0  0  0  0
    8.4477    2.3907    1.5409 C   0  0  0  0  0  0  0  0  0  0  0  0
    7.1333    1.9754    1.2986 C   0  0  0  0  0  0  0  0  0  0  0  0
    4.4790    0.8986    0.9241 N   0  0  0  0  0  0  0  0  0  0  0  0
    3.8046   -1.1200   -0.5421 H   0  0  0  0  0  0  0  0  0  0  0  0
    0.4247   -0.3132   -1.9721 H   0  0  0  0  0  0  0  0  0  0  0  0
   -0.7033   -1.7939   -3.5641 H   0  0  0  0  0  0  0  0  0  0  0  0
    0.4395   -5.7337   -3.3336 H   0  0  0  0  0  0  0  0  0  0  0  0
    1.7202   -5.4990   -4.5658 H   0  0  0  0  0  0  0  0  0  0  0  0
    0.6497   -5.1689   -7.0680 H   0  0  0  0  0  0  0  0  0  0  0  0
   -0.6059   -6.5959   -8.6764 H   0  0  0  0  0  0  0  0  0  0  0  0
   -2.0550   -8.4318   -7.7945 H   0  0  0  0  0  0  0  0  0  0  0  0
   -2.1702   -8.7694   -5.3233 H   0  0  0  0  0  0  0  0  0  0  0  0
    3.7593   -3.0532   -2.0044 H   0  0  0  0  0  0  0  0  0  0  0  0
    1.6143    0.9723    2.6317 H   0  0  0  0  0  0  0  0  0  0  0  0
    5.7842    2.8493    4.3013 H   0  0  0  0  0  0  0  0  0  0  0  0
    8.0795    3.5326    4.7172 H   0  0  0  0  0  0  0  0  0  0  0  0
    9.8197    3.2387    2.9716 H   0  0  0  0  0  0  0  0  0  0  0  0
    9.2048    2.2752    0.7694 H   0  0  0  0  0  0  0  0  0  0  0  0
    6.9064    1.5454    0.3288 H   0  0  0  0  0  0  0  0  0  0  0  0
    4.6301    1.4207    0.0586 H   0  0  0  0  0  0  0  0  0  0  0  0
  1  2  2  0  0  0  0
  2  3  1  0  0  0  0
  2 18  1  0  0  0  0
  3  4  1  0  0  0  0
  3 30  1  0  0  0  0
  4  5  2  0  0  0  0
  4 17  1  0  0  0  0
  5  6  1  0  0  0  0
  5 31  1  0  0  0  0
  6  7  2  0  0  0  0
  6 32  1  0  0  0  0
  7  8  1  0  0  0  0
  7 16  1  0  0  0  0
  8  9  1  0  0  0  0
  9 10  1  0  0  0  0
  9 33  1  0  0  0  0
  9 34  1  0  0  0  0
 10 11  2  0  0  0  0
 10 15  1  0  0  0  0
 11 12  1  0  0  0  0
 11 35  1  0  0  0  0
 12 13  2  0  0  0  0
 12 36  1  0  0  0  0
 13 14  1  0  0  0  0
 13 37  1  0  0  0  0
 14 15  2  0  0  0  0
 14 38  1  0  0  0  0
 16 17  2  0  0  0  0
 17 39  1  0  0  0  0
 18 19  2  0  0  0  0
 18 29  1  0  0  0  0
 19 20  1  0  0  0  0
 19 40  1  0  0  0  0
 20 21  2  0  0  0  0
 20 22  1  0  0  0  0
 22 23  1  0  0  0  0
 22 29  1  0  0  0  0
 23 24  2  0  0  0  0
 23 28  1  0  0  0  0
 24 25  1  0  0  0  0
 24 41  1  0  0  0  0
 25 26  2  0  0  0  0
 25 42  1  0  0  0  0
 26 27  1  0  0  0  0
 26 43  1  0  0  0  0
 27 28  2  0  0  0  0
 27 44  1  0  0  0  0
 28 45  1  0  0  0  0
 29 46  1  0  0  0  0
M  END
$$$$
