
 OpenBabel01122422353D

 55 57  0  0  0  0  0  0  0  0999 V2000
    1.1202    0.0561   -0.2382 C   0  0  0  0  0  0  0  0  0  0  0  0
    2.5635   -0.1658   -0.2432 N   0  0  0  0  0  0  0  0  0  0  0  0
    3.1324   -1.3479    0.4243 C   0  0  0  0  0  0  0  0  0  0  0  0
    2.1812   -2.2895    1.1555 C   0  0  0  0  0  0  0  0  0  0  0  0
    2.9322   -3.3681    1.7186 O   0  0  0  0  0  0  0  0  0  0  0  0
    2.1902   -4.3325    2.3505 C   0  0  0  0  0  0  0  0  0  0  0  0
    0.7996   -4.3067    2.5018 C   0  0  0  0  0  0  0  0  0  0  0  0
    0.1424   -5.3303    3.1795 C   0  0  0  0  0  0  0  0  0  0  0  0
    0.8744   -6.3915    3.7134 C   0  0  0  0  0  0  0  0  0  0  0  0
    2.2581   -6.4344    3.5573 C   0  0  0  0  0  0  0  0  0  0  0  0
    3.0076   -7.5263    4.0969 C   0  0  0  0  0  0  0  0  0  0  0  0
    3.6012   -8.4285    4.5339 N   0  0  0  0  0  0  0  0  0  0  0  0
    2.9183   -5.4002    2.8764 C   0  0  0  0  0  0  0  0  0  0  0  0
    3.3210    0.9067   -0.7527 C   0  0  0  0  0  0  0  0  0  0  0  0
    2.7722    1.9510   -1.1156 O   0  0  0  0  0  0  0  0  0  0  0  0
    4.8131    0.8572   -0.8682 C   0  0  0  0  0  0  0  0  0  0  0  0
    5.5391   -0.3070   -1.1266 C   0  0  0  0  0  0  0  0  0  0  0  0
    6.9331   -0.2883   -1.1925 C   0  0  0  0  0  0  0  0  0  0  0  0
    7.6166    0.9203   -1.1361 C   0  0  0  0  0  0  0  0  0  0  0  0
    6.9042    2.1189   -1.0330 C   0  0  0  0  0  0  0  0  0  0  0  0
    7.6111    3.4422   -1.1804 C   0  0  0  0  0  0  0  0  0  0  0  0
    8.0766    3.8454    0.0999 O   0  0  0  0  0  0  0  0  0  0  0  0
    8.7438    5.0427    0.1744 C   0  0  0  0  0  0  0  0  0  0  0  0
    8.5271    6.0947   -0.7297 C   0  0  0  0  0  0  0  0  0  0  0  0
    9.1502    7.3320   -0.5512 C   0  0  0  0  0  0  0  0  0  0  0  0
    9.9901    7.5388    0.5359 C   0  0  0  0  0  0  0  0  0  0  0  0
   10.2307    6.4964    1.4308 C   0  0  0  0  0  0  0  0  0  0  0  0
    9.6243    5.2386    1.2569 C   0  0  0  0  0  0  0  0  0  0  0  0
   10.0018    4.1766    2.2439 C   0  0  0  0  0  0  0  0  0  0  0  0
    9.5050    2.9171    2.0653 N   0  0  0  0  0  0  0  0  0  0  0  0
   10.7515    4.4091    3.1852 O   0  0  0  0  0  0  0  0  0  0  0  0
    5.5122    2.0752   -0.8370 C   0  0  0  0  0  0  0  0  0  0  0  0
    0.5508   -0.8195    0.0716 H   0  0  0  0  0  0  0  0  0  0  0  0
    0.7976    0.3206   -1.2505 H   0  0  0  0  0  0  0  0  0  0  0  0
    0.8893    0.8881    0.4348 H   0  0  0  0  0  0  0  0  0  0  0  0
    3.9328   -1.0221    1.0988 H   0  0  0  0  0  0  0  0  0  0  0  0
    3.5874   -1.9642   -0.3523 H   0  0  0  0  0  0  0  0  0  0  0  0
    1.4732   -2.7002    0.4238 H   0  0  0  0  0  0  0  0  0  0  0  0
    1.6571   -1.7431    1.9458 H   0  0  0  0  0  0  0  0  0  0  0  0
    0.1906   -3.4988    2.1059 H   0  0  0  0  0  0  0  0  0  0  0  0
   -0.9381   -5.2961    3.2952 H   0  0  0  0  0  0  0  0  0  0  0  0
    0.3504   -7.1833    4.2410 H   0  0  0  0  0  0  0  0  0  0  0  0
    4.0014   -5.4262    2.7491 H   0  0  0  0  0  0  0  0  0  0  0  0
    5.0527   -1.2497   -1.3277 H   0  0  0  0  0  0  0  0  0  0  0  0
    7.4775   -1.2187   -1.3354 H   0  0  0  0  0  0  0  0  0  0  0  0
    8.7001    0.9244   -1.2300 H   0  0  0  0  0  0  0  0  0  0  0  0
    6.9005    4.1591   -1.6049 H   0  0  0  0  0  0  0  0  0  0  0  0
    8.4566    3.3320   -1.8720 H   0  0  0  0  0  0  0  0  0  0  0  0
    7.8546    6.0015   -1.5758 H   0  0  0  0  0  0  0  0  0  0  0  0
    8.9624    8.1404   -1.2545 H   0  0  0  0  0  0  0  0  0  0  0  0
   10.4585    8.5077    0.6895 H   0  0  0  0  0  0  0  0  0  0  0  0
   10.8988    6.6683    2.2736 H   0  0  0  0  0  0  0  0  0  0  0  0
    8.7879    2.7319    1.3744 H   0  0  0  0  0  0  0  0  0  0  0  0
    9.7045    2.2191    2.7677 H   0  0  0  0  0  0  0  0  0  0  0  0
    4.9594    3.0063   -0.7074 H   0  0  0  0  0  0  0  0  0  0  0  0
  1  2  1  0  0  0  0
  1 33  1  0  0  0  0
  1 34  1  0  0  0  0
  1 35  1  0  0  0  0
  2  3  1  0  0  0  0
  2 14  1  0  0  0  0
  3  4  1  0  0  0  0
  3 36  1  0  0  0  0
  3 37  1  0  0  0  0
  4  5  1  0  0  0  0
  4 38  1  0  0  0  0
  4 39  1  0  0  0  0
  5  6  1  0  0  0  0
  6  7  2  0  0  0  0
  6 13  1  0  0  0  0
  7  8  1  0  0  0  0
  7 40  1  0  0  0  0
  8  9  2  0  0  0  0
  8 41  1  0  0  0  0
  9 10  1  0  0  0  0
  9 42  1  0  0  0  0
 10 11  1  0  0  0  0
 10 13  2  0  0  0  0
 11 12  3  0  0  0  0
 13 43  1  0  0  0  0
 14 15  2  0  0  0  0
 14 16  1  0  0  0  0
 16 17  2  0  0  0  0
 16 32  1  0  0  0  0
 17 18  1  0  0  0  0
 17 44  1  0  0  0  0
 18 19  2  0  0  0  0
 18 45  1  0  0  0  0
 19 20  1  0  0  0  0
 19 46  1  0  0  0  0
 20 21  1  0  0  0  0
 20 32  2  0  0  0  0
 21 22  1  0  0  0  0
 21 47  1  0  0  0  0
 21 48  1  0  0  0  0
 22 23  1  0  0  0  0
 23 24  2  0  0  0  0
 23 28  1  0  0  0  0
 24 25  1  0  0  0  0
 24 49  1  0  0  0  0
 25 26  2  0  0  0  0
 25 50  1  0  0  0  0
 26 27  1  0  0  0  0
 26 51  1  0  0  0  0
 27 28  2  0  0  0  0
 27 52  1  0  0  0  0
 28 29  1  0  0  0  0
 29 30  1  0  0  0  0
 29 31  2  0  0  0  0
 30 53  1  0  0  0  0
 30 54  1  0  0  0  0
 32 55  1  0  0  0  0
M  END
$$$$
