
 OpenBabel01122422373D

 44 47  0  0  0  0  0  0  0  0999 V2000
    1.0334    0.1989    0.0825 O   0  0  0  0  0  0  0  0  0  0  0  0
    2.2591    0.1362    0.0628 C   0  0  0  0  0  0  0  0  0  0  0  0
    2.9964   -0.2437    1.1708 N   0  0  0  0  0  0  0  0  0  0  0  0
    2.3439   -0.5254    2.4331 C   0  0  0  0  0  0  0  0  0  0  0  0
    3.3124   -0.9213    3.5464 C   0  0  0  0  0  0  0  0  0  0  0  0
    2.6023   -1.2387    4.8298 C   0  0  0  0  0  0  0  0  0  0  0  0
    2.1297   -2.4778    5.2188 C   0  0  0  0  0  0  0  0  0  0  0  0
    1.5350   -2.3523    6.4452 N   0  0  0  0  0  0  0  0  0  0  0  0
    1.6087   -1.0481    6.8770 C   0  0  0  0  0  0  0  0  0  0  0  0
    1.1429   -0.4556    8.0570 C   0  0  0  0  0  0  0  0  0  0  0  0
    1.3651    0.9116    8.2201 C   0  0  0  0  0  0  0  0  0  0  0  0
    0.9342    1.5094    9.3404 F   0  0  0  0  0  0  0  0  0  0  0  0
    2.0167    1.6714    7.2600 C   0  0  0  0  0  0  0  0  0  0  0  0
    2.4691    1.0587    6.0934 C   0  0  0  0  0  0  0  0  0  0  0  0
    3.0964    1.8026    5.1706 F   0  0  0  0  0  0  0  0  0  0  0  0
    2.2726   -0.3230    5.8820 C   0  0  0  0  0  0  0  0  0  0  0  0
    3.0735    0.4697   -1.1185 C   0  0  0  0  0  0  0  0  0  0  0  0
    4.4254    0.4228   -1.1028 N   0  0  0  0  0  0  0  0  0  0  0  0
    4.8095    0.8455   -2.3415 N   0  0  0  0  0  0  0  0  0  0  0  0
    6.1880    0.9538   -2.6851 C   0  0  0  0  0  0  0  0  0  0  0  0
    6.5903    1.4924   -3.9199 C   0  0  0  0  0  0  0  0  0  0  0  0
    7.9488    1.5843   -4.2416 C   0  0  0  0  0  0  0  0  0  0  0  0
    8.9099    1.1335   -3.3406 C   0  0  0  0  0  0  0  0  0  0  0  0
    8.5085    0.6023   -2.1205 C   0  0  0  0  0  0  0  0  0  0  0  0
    9.4362    0.1645   -1.2593 F   0  0  0  0  0  0  0  0  0  0  0  0
    7.1628    0.5137   -1.7795 C   0  0  0  0  0  0  0  0  0  0  0  0
    3.7277    1.1253   -3.1459 C   0  0  0  0  0  0  0  0  0  0  0  0
    2.6164    0.8766   -2.3907 C   0  0  0  0  0  0  0  0  0  0  0  0
    1.3587    1.0195   -2.8323 O   0  0  0  0  0  0  0  0  0  0  0  0
    4.0066   -0.2241    1.0701 H   0  0  0  0  0  0  0  0  0  0  0  0
    1.6172   -1.3277    2.2545 H   0  0  0  0  0  0  0  0  0  0  0  0
    1.7701    0.3648    2.7195 H   0  0  0  0  0  0  0  0  0  0  0  0
    4.0379   -0.1154    3.7122 H   0  0  0  0  0  0  0  0  0  0  0  0
    3.8989   -1.7939    3.2308 H   0  0  0  0  0  0  0  0  0  0  0  0
    2.1622   -3.4390    4.7221 H   0  0  0  0  0  0  0  0  0  0  0  0
    1.0997   -3.1053    6.9620 H   0  0  0  0  0  0  0  0  0  0  0  0
    0.6287   -1.0243    8.8248 H   0  0  0  0  0  0  0  0  0  0  0  0
    2.1741    2.7324    7.4138 H   0  0  0  0  0  0  0  0  0  0  0  0
    5.8778    1.8628   -4.6511 H   0  0  0  0  0  0  0  0  0  0  0  0
    8.2554    2.0086   -5.1952 H   0  0  0  0  0  0  0  0  0  0  0  0
    9.9672    1.1931   -3.5794 H   0  0  0  0  0  0  0  0  0  0  0  0
    6.8989    0.0890   -0.8148 H   0  0  0  0  0  0  0  0  0  0  0  0
    3.8333    1.4592   -4.1651 H   0  0  0  0  0  0  0  0  0  0  0  0
    1.3402    1.2967   -3.7632 H   0  0  0  0  0  0  0  0  0  0  0  0
  1  2  2  0  0  0  0
  2  3  1  0  0  0  0
  2 17  1  0  0  0  0
  3  4  1  0  0  0  0
  3 30  1  0  0  0  0
  4  5  1  0  0  0  0
  4 31  1  0  0  0  0
  4 32  1  0  0  0  0
  5  6  1  0  0  0  0
  5 33  1  0  0  0  0
  5 34  1  0  0  0  0
  6  7  2  0  0  0  0
  6 16  1  0  0  0  0
  7  8  1  0  0  0  0
  7 35  1  0  0  0  0
  8  9  1  0  0  0  0
  8 36  1  0  0  0  0
  9 10  2  0  0  0  0
  9 16  1  0  0  0  0
 10 11  1  0  0  0  0
 10 37  1  0  0  0  0
 11 12  1  0  0  0  0
 11 13  2  0  0  0  0
 13 14  1  0  0  0  0
 13 38  1  0  0  0  0
 14 15  1  0  0  0  0
 14 16  2  0  0  0  0
 17 18  2  0  0  0  0
 17 28  1  0  0  0  0
 18 19  1  0  0  0  0
 19 20  1  0  0  0  0
 19 27  1  0  0  0  0
 20 21  2  0  0  0  0
 20 26  1  0  0  0  0
 21 22  1  0  0  0  0
 21 39  1  0  0  0  0
 22 23  2  0  0  0  0
 22 40  1  0  0  0  0
 23 24  1  0  0  0  0
 23 41  1  0  0  0  0
 24 25  1  0  0  0  0
 24 26  2  0  0  0  0
 26 42  1  0  0  0  0
 27 28  2  0  0  0  0
 27 43  1  0  0  0  0
 28 29  1  0  0  0  0
 29 44  1  0  0  0  0
M  END
$$$$
