
 OpenBabel01122422373D

 47 50  0  0  0  0  0  0  0  0999 V2000
    6.4129    6.7043   -2.1841 C   0  0  0  0  0  0  0  0  0  0  0  0
    6.7733    5.2731   -2.4925 C   0  0  0  0  0  0  0  0  0  0  0  0
    6.5797    4.8029   -3.6079 O   0  0  0  0  0  0  0  0  0  0  0  0
    7.3143    4.6139   -1.4035 N   0  0  0  0  0  0  0  0  0  0  0  0
    7.7393    3.2669   -1.3688 C   0  0  0  0  0  0  0  0  0  0  0  0
    7.9317    2.4727   -2.4994 C   0  0  0  0  0  0  0  0  0  0  0  0
    8.3167    1.1360   -2.3571 C   0  0  0  0  0  0  0  0  0  0  0  0
    8.5100    0.6348   -1.0795 C   0  0  0  0  0  0  0  0  0  0  0  0
    8.8792   -0.7035   -0.9627 O   0  0  0  0  0  0  0  0  0  0  0  0
    9.7024   -1.0406    0.0906 C   0  0  0  0  0  0  0  0  0  0  0  0
    9.5156   -2.2874    0.7036 C   0  0  0  0  0  0  0  0  0  0  0  0
   10.3397   -2.6905    1.7706 C   0  0  0  0  0  0  0  0  0  0  0  0
   11.3658   -1.8520    2.2111 C   0  0  0  0  0  0  0  0  0  0  0  0
   12.3567   -2.2045    3.2712 C   0  0  0  0  0  0  0  0  0  0  0  0
   13.4692   -1.6972    3.1489 O   0  0  0  0  0  0  0  0  0  0  0  0
   11.9353   -2.9879    4.3443 N   0  0  0  0  0  0  0  0  0  0  0  0
   12.7540   -3.2275    5.5036 C   0  0  0  0  0  0  0  0  0  0  0  0
   14.1473   -3.0892    5.4313 C   0  0  0  0  0  0  0  0  0  0  0  0
   14.9466   -3.0848    6.5723 C   0  0  0  0  0  0  0  0  0  0  0  0
   14.3551   -3.1973    7.8212 C   0  0  0  0  0  0  0  0  0  0  0  0
   12.9781   -3.4182    7.9261 C   0  0  0  0  0  0  0  0  0  0  0  0
   12.3696   -3.5425    9.1718 C   0  0  0  0  0  0  0  0  0  0  0  0
   11.0683   -3.8524    9.3355 N   0  0  0  0  0  0  0  0  0  0  0  0
   10.3052   -4.0670    8.2397 N   0  0  0  0  0  0  0  0  0  0  0  0
   10.8425   -3.8892    7.0096 C   0  0  0  0  0  0  0  0  0  0  0  0
   12.1696   -3.5183    6.7723 C   0  0  0  0  0  0  0  0  0  0  0  0
   11.5629   -0.6198    1.5663 C   0  0  0  0  0  0  0  0  0  0  0  0
   10.7536   -0.2254    0.5046 C   0  0  0  0  0  0  0  0  0  0  0  0
    8.3372    1.3746    0.0402 N   0  0  0  0  0  0  0  0  0  0  0  0
    7.9785    2.6679   -0.1337 C   0  0  0  0  0  0  0  0  0  0  0  0
    5.7569    7.0900   -2.9709 H   0  0  0  0  0  0  0  0  0  0  0  0
    7.3213    7.3104   -2.1469 H   0  0  0  0  0  0  0  0  0  0  0  0
    5.8790    6.7725   -1.2321 H   0  0  0  0  0  0  0  0  0  0  0  0
    7.2986    5.1056   -0.5178 H   0  0  0  0  0  0  0  0  0  0  0  0
    7.8053    2.8689   -3.5018 H   0  0  0  0  0  0  0  0  0  0  0  0
    8.4700    0.5130   -3.2299 H   0  0  0  0  0  0  0  0  0  0  0  0
    8.7305   -2.9478    0.3428 H   0  0  0  0  0  0  0  0  0  0  0  0
   10.1962   -3.6800    2.2039 H   0  0  0  0  0  0  0  0  0  0  0  0
   10.9418   -3.1216    4.4377 H   0  0  0  0  0  0  0  0  0  0  0  0
   14.6580   -2.9690    4.4775 H   0  0  0  0  0  0  0  0  0  0  0  0
   16.0218   -2.9585    6.4781 H   0  0  0  0  0  0  0  0  0  0  0  0
   14.9858   -3.1439    8.7087 H   0  0  0  0  0  0  0  0  0  0  0  0
   12.9184   -3.3862   10.0991 H   0  0  0  0  0  0  0  0  0  0  0  0
   10.1477   -4.0996    6.2050 H   0  0  0  0  0  0  0  0  0  0  0  0
   12.3681    0.0433    1.8815 H   0  0  0  0  0  0  0  0  0  0  0  0
   10.9533    0.7256    0.0182 H   0  0  0  0  0  0  0  0  0  0  0  0
    7.8694    3.2208    0.7950 H   0  0  0  0  0  0  0  0  0  0  0  0
  1  2  1  0  0  0  0
  1 31  1  0  0  0  0
  1 32  1  0  0  0  0
  1 33  1  0  0  0  0
  2  3  2  0  0  0  0
  2  4  1  0  0  0  0
  4  5  1  0  0  0  0
  4 34  1  0  0  0  0
  5  6  2  0  0  0  0
  5 30  1  0  0  0  0
  6  7  1  0  0  0  0
  6 35  1  0  0  0  0
  7  8  2  0  0  0  0
  7 36  1  0  0  0  0
  8  9  1  0  0  0  0
  8 29  1  0  0  0  0
  9 10  1  0  0  0  0
 10 11  2  0  0  0  0
 10 28  1  0  0  0  0
 11 12  1  0  0  0  0
 11 37  1  0  0  0  0
 12 13  2  0  0  0  0
 12 38  1  0  0  0  0
 13 14  1  0  0  0  0
 13 27  1  0  0  0  0
 14 15  2  0  0  0  0
 14 16  1  0  0  0  0
 16 17  1  0  0  0  0
 16 39  1  0  0  0  0
 17 18  2  0  0  0  0
 17 26  1  0  0  0  0
 18 19  1  0  0  0  0
 18 40  1  0  0  0  0
 19 20  2  0  0  0  0
 19 41  1  0  0  0  0
 20 21  1  0  0  0  0
 20 42  1  0  0  0  0
 21 22  2  0  0  0  0
 21 26  1  0  0  0  0
 22 23  1  0  0  0  0
 22 43  1  0  0  0  0
 23 24  2  0  0  0  0
 24 25  1  0  0  0  0
 25 26  2  0  0  0  0
 25 44  1  0  0  0  0
 27 28  2  0  0  0  0
 27 45  1  0  0  0  0
 28 46  1  0  0  0  0
 29 30  2  0  0  0  0
 30 47  1  0  0  0  0
M  END
$$$$
