
 OpenBabel01122422373D

 48 51  0  0  0  0  0  0  0  0999 V2000
    2.2562    2.4471   -3.5395 O   0  0  0  0  0  0  0  0  0  0  0  0
    1.8492    1.6180   -2.7381 C   0  0  0  0  0  0  0  0  0  0  0  0
    0.4089    1.4407   -2.3261 C   0  0  0  0  0  0  0  0  0  0  0  0
   -0.5250    1.7867   -3.4796 C   0  0  0  0  0  0  0  0  0  0  0  0
   -1.9671    1.6309   -3.0902 C   0  0  0  0  0  0  0  0  0  0  0  0
   -2.6984    2.7085   -2.5930 C   0  0  0  0  0  0  0  0  0  0  0  0
   -3.9982    2.6121   -2.2265 N   0  0  0  0  0  0  0  0  0  0  0  0
   -4.5496    1.3877   -2.3773 C   0  0  0  0  0  0  0  0  0  0  0  0
   -3.8311    0.3091   -2.8614 C   0  0  0  0  0  0  0  0  0  0  0  0
   -2.5293    0.4028   -3.2232 N   0  0  0  0  0  0  0  0  0  0  0  0
    2.6332    0.7290   -2.0743 O   0  0  0  0  0  0  0  0  0  0  0  0
    4.0356    0.8248   -2.3445 C   0  0  0  0  0  0  0  0  0  0  0  0
    4.7489    1.9361   -1.5692 C   0  0  0  0  0  0  0  0  0  0  0  0
    4.1275    2.6132   -0.7469 O   0  0  0  0  0  0  0  0  0  0  0  0
    6.1828    2.1666   -1.8237 C   0  0  0  0  0  0  0  0  0  0  0  0
    6.8184    3.4157   -1.7698 C   0  0  0  0  0  0  0  0  0  0  0  0
    6.3118    4.7889   -1.5866 C   0  0  0  0  0  0  0  0  0  0  0  0
    7.0848    5.7665   -0.9334 C   0  0  0  0  0  0  0  0  0  0  0  0
    6.6130    7.0757   -0.7875 C   0  0  0  0  0  0  0  0  0  0  0  0
    5.3601    7.4119   -1.2814 C   0  0  0  0  0  0  0  0  0  0  0  0
    4.9041    8.6624   -1.1331 F   0  0  0  0  0  0  0  0  0  0  0  0
    4.5774    6.4689   -1.9300 C   0  0  0  0  0  0  0  0  0  0  0  0
    5.0591    5.1674   -2.0940 C   0  0  0  0  0  0  0  0  0  0  0  0
    8.1592    3.1852   -1.9917 N   0  0  0  0  0  0  0  0  0  0  0  0
    8.4165    1.8577   -2.2148 C   0  0  0  0  0  0  0  0  0  0  0  0
    9.6369    1.2179   -2.4741 C   0  0  0  0  0  0  0  0  0  0  0  0
    9.6227   -0.1631   -2.6711 C   0  0  0  0  0  0  0  0  0  0  0  0
    8.4325   -0.8738   -2.6025 C   0  0  0  0  0  0  0  0  0  0  0  0
    7.2257   -0.2178   -2.3278 C   0  0  0  0  0  0  0  0  0  0  0  0
    7.1984    1.1844   -2.1361 C   0  0  0  0  0  0  0  0  0  0  0  0
    0.2235    2.0767   -1.4536 H   0  0  0  0  0  0  0  0  0  0  0  0
    0.2468    0.3981   -2.0251 H   0  0  0  0  0  0  0  0  0  0  0  0
   -0.3171    1.1304   -4.3348 H   0  0  0  0  0  0  0  0  0  0  0  0
   -0.3472    2.8087   -3.8359 H   0  0  0  0  0  0  0  0  0  0  0  0
   -2.2543    3.6917   -2.4751 H   0  0  0  0  0  0  0  0  0  0  0  0
   -5.5929    1.2961   -2.0936 H   0  0  0  0  0  0  0  0  0  0  0  0
   -4.2887   -0.6683   -2.9761 H   0  0  0  0  0  0  0  0  0  0  0  0
    4.2194    0.9363   -3.4195 H   0  0  0  0  0  0  0  0  0  0  0  0
    4.4393   -0.1334   -2.0212 H   0  0  0  0  0  0  0  0  0  0  0  0
    8.0578    5.5236   -0.5140 H   0  0  0  0  0  0  0  0  0  0  0  0
    7.2103    7.8307   -0.2864 H   0  0  0  0  0  0  0  0  0  0  0  0
    3.5961    6.7432   -2.3035 H   0  0  0  0  0  0  0  0  0  0  0  0
    4.4301    4.4546   -2.6209 H   0  0  0  0  0  0  0  0  0  0  0  0
    8.8678    3.9046   -2.0154 H   0  0  0  0  0  0  0  0  0  0  0  0
   10.5699    1.7710   -2.5176 H   0  0  0  0  0  0  0  0  0  0  0  0
   10.5529   -0.6886   -2.8749 H   0  0  0  0  0  0  0  0  0  0  0  0
    8.4352   -1.9508   -2.7549 H   0  0  0  0  0  0  0  0  0  0  0  0
    6.3320   -0.8264   -2.2647 H   0  0  0  0  0  0  0  0  0  0  0  0
  1  2  2  0  0  0  0
  2  3  1  0  0  0  0
  2 11  1  0  0  0  0
  3  4  1  0  0  0  0
  3 31  1  0  0  0  0
  3 32  1  0  0  0  0
  4  5  1  0  0  0  0
  4 33  1  0  0  0  0
  4 34  1  0  0  0  0
  5  6  2  0  0  0  0
  5 10  1  0  0  0  0
  6  7  1  0  0  0  0
  6 35  1  0  0  0  0
  7  8  2  0  0  0  0
  8  9  1  0  0  0  0
  8 36  1  0  0  0  0
  9 10  2  0  0  0  0
  9 37  1  0  0  0  0
 11 12  1  0  0  0  0
 12 13  1  0  0  0  0
 12 38  1  0  0  0  0
 12 39  1  0  0  0  0
 13 14  2  0  0  0  0
 13 15  1  0  0  0  0
 15 16  2  0  0  0  0
 15 30  1  0  0  0  0
 16 17  1  0  0  0  0
 16 24  1  0  0  0  0
 17 18  2  0  0  0  0
 17 23  1  0  0  0  0
 18 19  1  0  0  0  0
 18 40  1  0  0  0  0
 19 20  2  0  0  0  0
 19 41  1  0  0  0  0
 20 21  1  0  0  0  0
 20 22  1  0  0  0  0
 22 23  2  0  0  0  0
 22 42  1  0  0  0  0
 23 43  1  0  0  0  0
 24 25  1  0  0  0  0
 24 44  1  0  0  0  0
 25 26  2  0  0  0  0
 25 30  1  0  0  0  0
 26 27  1  0  0  0  0
 26 45  1  0  0  0  0
 27 28  2  0  0  0  0
 27 46  1  0  0  0  0
 28 29  1  0  0  0  0
 28 47  1  0  0  0  0
 29 30  2  0  0  0  0
 29 48  1  0  0  0  0
M  END
$$$$
