
 OpenBabel01122422373D

 51 54  0  0  0  0  0  0  0  0999 V2000
    1.0311    0.2197    0.2376 C   0  0  0  0  0  0  0  0  0  0  0  0
    2.4668    0.0425    0.1298 N   0  0  0  0  0  0  0  0  0  0  0  0
    3.1551   -0.8137    0.9852 C   0  0  0  0  0  0  0  0  0  0  0  0
    2.5543   -1.4975    1.8208 O   0  0  0  0  0  0  0  0  0  0  0  0
    4.6539   -0.9815    0.9404 C   0  0  0  0  0  0  0  0  0  0  0  0
    5.5627   -0.0099    0.5244 C   0  0  0  0  0  0  0  0  0  0  0  0
    6.9286   -0.2828    0.4116 C   0  0  0  0  0  0  0  0  0  0  0  0
    7.4571   -1.5048    0.8304 C   0  0  0  0  0  0  0  0  0  0  0  0
    8.9049   -1.7269    0.7178 C   0  0  0  0  0  0  0  0  0  0  0  0
    9.9293   -0.7887    0.7167 C   0  0  0  0  0  0  0  0  0  0  0  0
   11.1180   -1.5116    0.5495 C   0  0  0  0  0  0  0  0  0  0  0  0
   10.8961   -2.8182    0.4423 N   0  0  0  0  0  0  0  0  0  0  0  0
    9.5535   -2.9323    0.5243 N   0  0  0  0  0  0  0  0  0  0  0  0
    8.9789   -4.2461    0.3620 C   0  0  0  0  0  0  0  0  0  0  0  0
    6.5673   -2.4330    1.3815 C   0  0  0  0  0  0  0  0  0  0  0  0
    5.1843   -2.1879    1.4095 C   0  0  0  0  0  0  0  0  0  0  0  0
    3.0747    0.8592   -0.8180 C   0  0  0  0  0  0  0  0  0  0  0  0
    3.5276    0.3140   -1.9575 N   0  0  0  0  0  0  0  0  0  0  0  0
    4.2502    1.1256   -2.7632 C   0  0  0  0  0  0  0  0  0  0  0  0
    4.5751    2.4285   -2.4513 C   0  0  0  0  0  0  0  0  0  0  0  0
    5.3321    3.1412   -3.3265 O   0  0  0  0  0  0  0  0  0  0  0  0
    5.3367    4.5529   -3.0968 C   0  0  0  0  0  0  0  0  0  0  0  0
    5.6684    5.2661   -4.3765 C   0  0  0  0  0  0  0  0  0  0  0  0
    4.6982    6.0561   -5.0118 C   0  0  0  0  0  0  0  0  0  0  0  0
    5.0006    6.7385   -6.1849 C   0  0  0  0  0  0  0  0  0  0  0  0
    6.2747    6.6382   -6.7396 C   0  0  0  0  0  0  0  0  0  0  0  0
    7.2434    5.8491   -6.1214 C   0  0  0  0  0  0  0  0  0  0  0  0
    6.9436    5.1631   -4.9451 C   0  0  0  0  0  0  0  0  0  0  0  0
    4.0859    2.8674   -1.2410 C   0  0  0  0  0  0  0  0  0  0  0  0
    3.3005    2.1289   -0.4366 N   0  0  0  0  0  0  0  0  0  0  0  0
    0.6103   -0.3501    1.0695 H   0  0  0  0  0  0  0  0  0  0  0  0
    0.5644   -0.1264   -0.6914 H   0  0  0  0  0  0  0  0  0  0  0  0
    0.7933    1.2784    0.3866 H   0  0  0  0  0  0  0  0  0  0  0  0
    5.2622    0.9964    0.2903 H   0  0  0  0  0  0  0  0  0  0  0  0
    7.5692    0.4911   -0.0051 H   0  0  0  0  0  0  0  0  0  0  0  0
    9.8305    0.2822    0.8239 H   0  0  0  0  0  0  0  0  0  0  0  0
   12.1330   -1.1399    0.4986 H   0  0  0  0  0  0  0  0  0  0  0  0
    9.7271   -4.9217   -0.0584 H   0  0  0  0  0  0  0  0  0  0  0  0
    8.1301   -4.1871   -0.3228 H   0  0  0  0  0  0  0  0  0  0  0  0
    8.6737   -4.6098    1.3464 H   0  0  0  0  0  0  0  0  0  0  0  0
    6.9167   -3.3624    1.8165 H   0  0  0  0  0  0  0  0  0  0  0  0
    4.5232   -2.9498    1.8216 H   0  0  0  0  0  0  0  0  0  0  0  0
    4.5834    0.6742   -3.6940 H   0  0  0  0  0  0  0  0  0  0  0  0
    6.0777    4.8028   -2.3279 H   0  0  0  0  0  0  0  0  0  0  0  0
    4.3523    4.9024   -2.7616 H   0  0  0  0  0  0  0  0  0  0  0  0
    3.6951    6.1415   -4.5896 H   0  0  0  0  0  0  0  0  0  0  0  0
    4.2406    7.3527   -6.6630 H   0  0  0  0  0  0  0  0  0  0  0  0
    6.5082    7.1737   -7.6517 H   0  0  0  0  0  0  0  0  0  0  0  0
    8.2316    5.7664   -6.5585 H   0  0  0  0  0  0  0  0  0  0  0  0
    7.7068    4.5470   -4.4756 H   0  0  0  0  0  0  0  0  0  0  0  0
    4.3362    3.8372   -0.8242 H   0  0  0  0  0  0  0  0  0  0  0  0
  1  2  1  0  0  0  0
  1 31  1  0  0  0  0
  1 32  1  0  0  0  0
  1 33  1  0  0  0  0
  2  3  1  0  0  0  0
  2 17  1  0  0  0  0
  3  4  2  0  0  0  0
  3  5  1  0  0  0  0
  5  6  2  0  0  0  0
  5 16  1  0  0  0  0
  6  7  1  0  0  0  0
  6 34  1  0  0  0  0
  7  8  2  0  0  0  0
  7 35  1  0  0  0  0
  8  9  1  0  0  0  0
  8 15  1  0  0  0  0
  9 10  2  0  0  0  0
  9 13  1  0  0  0  0
 10 11  1  0  0  0  0
 10 36  1  0  0  0  0
 11 12  2  0  0  0  0
 11 37  1  0  0  0  0
 12 13  1  0  0  0  0
 13 14  1  0  0  0  0
 14 38  1  0  0  0  0
 14 39  1  0  0  0  0
 14 40  1  0  0  0  0
 15 16  2  0  0  0  0
 15 41  1  0  0  0  0
 16 42  1  0  0  0  0
 17 18  2  0  0  0  0
 17 30  1  0  0  0  0
 18 19  1  0  0  0  0
 19 20  2  0  0  0  0
 19 43  1  0  0  0  0
 20 21  1  0  0  0  0
 20 29  1  0  0  0  0
 21 22  1  0  0  0  0
 22 23  1  0  0  0  0
 22 44  1  0  0  0  0
 22 45  1  0  0  0  0
 23 24  2  0  0  0  0
 23 28  1  0  0  0  0
 24 25  1  0  0  0  0
 24 46  1  0  0  0  0
 25 26  2  0  0  0  0
 25 47  1  0  0  0  0
 26 27  1  0  0  0  0
 26 48  1  0  0  0  0
 27 28  2  0  0  0  0
 27 49  1  0  0  0  0
 28 50  1  0  0  0  0
 29 30  2  0  0  0  0
 29 51  1  0  0  0  0
M  END
$$$$
