
 OpenBabel01122422373D

 48 51  0  0  1  0  0  0  0  0999 V2000
    6.8567   -0.3763    6.8089 N   0  0  0  0  0  0  0  0  0  0  0  0
    7.0320   -0.3149    5.5617 C   0  0  0  0  0  0  0  0  0  0  0  0
    7.2432   -0.2408    4.0583 C   0  0  0  0  0  0  0  0  0  0  0  0
    7.2447   -1.3651    3.3080 C   0  0  0  0  0  0  0  0  0  0  0  0
    7.4484   -1.2812    1.9243 N   0  0  0  0  0  0  0  0  0  0  0  0
    7.4954   -2.2645    0.9302 C   0  0  0  0  0  0  0  0  0  0  0  0
    7.3604   -3.6918    1.1152 C   0  0  0  0  0  0  0  0  0  0  0  0
    7.2302   -4.2231    2.2134 O   0  0  0  0  0  0  0  0  0  0  0  0
    7.3670   -4.4352   -0.0475 N   0  0  0  0  0  0  0  0  0  0  0  0
    7.3459   -5.8982   -0.0651 C   0  0  3  0  0  0  0  0  0  0  0  0
    6.6353   -6.3894   -1.3466 C   0  0  0  0  0  0  0  0  0  0  0  0
    7.0965   -7.2775   -2.0707 O   0  0  0  0  0  0  0  0  0  0  0  0
    5.2633   -5.7959   -1.6495 C   0  0  0  0  0  0  0  0  0  0  0  0
    5.2656   -4.9270   -2.8843 C   0  0  0  0  0  0  0  0  0  0  0  0
    5.5968   -5.4722   -4.1345 C   0  0  0  0  0  0  0  0  0  0  0  0
    5.6697   -4.6640   -5.2692 C   0  0  0  0  0  0  0  0  0  0  0  0
    5.3906   -3.3035   -5.1721 C   0  0  0  0  0  0  0  0  0  0  0  0
    5.0139   -2.7574   -3.9458 C   0  0  0  0  0  0  0  0  0  0  0  0
    4.9470   -3.5645   -2.8071 C   0  0  0  0  0  0  0  0  0  0  0  0
    8.7484   -6.4689    0.0949 C   0  0  0  0  0  0  0  0  0  0  0  0
    9.0299   -7.3782    1.1298 C   0  0  0  0  0  0  0  0  0  0  0  0
   10.3190   -7.8914    1.2992 C   0  0  0  0  0  0  0  0  0  0  0  0
   11.3424   -7.5116    0.4354 C   0  0  0  0  0  0  0  0  0  0  0  0
   11.0740   -6.6331   -0.6114 C   0  0  0  0  0  0  0  0  0  0  0  0
    9.7863   -6.1186   -0.7846 C   0  0  0  0  0  0  0  0  0  0  0  0
    7.6915   -1.5385   -0.2402 C   0  0  0  0  0  0  0  0  0  0  0  0
    7.7784   -0.1920   -0.0117 N   0  0  0  0  0  0  0  0  0  0  0  0
    7.6442   -0.0538    1.2820 C   0  0  0  0  0  0  0  0  0  0  0  0
    7.6674    1.1240    2.0838 C   0  0  0  0  0  0  0  0  0  0  0  0
    7.4765    1.0422    3.4122 C   0  0  0  0  0  0  0  0  0  0  0  0
    7.0905   -2.3514    3.7316 H   0  0  0  0  0  0  0  0  0  0  0  0
    7.5620   -3.9823   -0.9276 H   0  0  0  0  0  0  0  0  0  0  0  0
    6.7243   -6.2384    0.7732 H   0  0  0  0  0  0  0  0  0  0  0  0
    4.9098   -5.2327   -0.7785 H   0  0  0  0  0  0  0  0  0  0  0  0
    4.5552   -6.6240   -1.7756 H   0  0  0  0  0  0  0  0  0  0  0  0
    5.8189   -6.5346   -4.2320 H   0  0  0  0  0  0  0  0  0  0  0  0
    5.9519   -5.0971   -6.2252 H   0  0  0  0  0  0  0  0  0  0  0  0
    5.4598   -2.6715   -6.0538 H   0  0  0  0  0  0  0  0  0  0  0  0
    4.7742   -1.6989   -3.8785 H   0  0  0  0  0  0  0  0  0  0  0  0
    4.6417   -3.1158   -1.8644 H   0  0  0  0  0  0  0  0  0  0  0  0
    8.2483   -7.6948    1.8175 H   0  0  0  0  0  0  0  0  0  0  0  0
   10.5241   -8.5918    2.1063 H   0  0  0  0  0  0  0  0  0  0  0  0
   12.3458   -7.9047    0.5724 H   0  0  0  0  0  0  0  0  0  0  0  0
   11.8673   -6.3509   -1.2988 H   0  0  0  0  0  0  0  0  0  0  0  0
    9.5982   -5.4532   -1.6236 H   0  0  0  0  0  0  0  0  0  0  0  0
    7.7825   -1.9137   -1.2480 H   0  0  0  0  0  0  0  0  0  0  0  0
    7.8482    2.0740    1.5934 H   0  0  0  0  0  0  0  0  0  0  0  0
    7.5048    1.9360    4.0301 H   0  0  0  0  0  0  0  0  0  0  0  0
  1  2  3  0  0  0  0
  2  3  1  0  0  0  0
  3  4  2  0  0  0  0
  3 30  1  0  0  0  0
  4  5  1  0  0  0  0
  4 31  1  0  0  0  0
  5  6  1  0  0  0  0
  5 28  1  0  0  0  0
  6  7  1  0  0  0  0
  6 26  2  0  0  0  0
  7  8  2  0  0  0  0
  7  9  1  0  0  0  0
  9 10  1  0  0  0  0
  9 32  1  0  0  0  0
 10 11  1  0  0  0  0
 10 20  1  0  0  0  0
 10 33  1  0  0  0  0
 11 12  2  0  0  0  0
 11 13  1  0  0  0  0
 13 14  1  0  0  0  0
 13 34  1  0  0  0  0
 13 35  1  0  0  0  0
 14 15  2  0  0  0  0
 14 19  1  0  0  0  0
 15 16  1  0  0  0  0
 15 36  1  0  0  0  0
 16 17  2  0  0  0  0
 16 37  1  0  0  0  0
 17 18  1  0  0  0  0
 17 38  1  0  0  0  0
 18 19  2  0  0  0  0
 18 39  1  0  0  0  0
 19 40  1  0  0  0  0
 20 21  2  0  0  0  0
 20 25  1  0  0  0  0
 21 22  1  0  0  0  0
 21 41  1  0  0  0  0
 22 23  2  0  0  0  0
 22 42  1  0  0  0  0
 23 24  1  0  0  0  0
 23 43  1  0  0  0  0
 24 25  2  0  0  0  0
 24 44  1  0  0  0  0
 25 45  1  0  0  0  0
 26 27  1  0  0  0  0
 26 46  1  0  0  0  0
 27 28  2  0  0  0  0
 28 29  1  0  0  0  0
 29 30  2  0  0  0  0
 29 47  1  0  0  0  0
 30 48  1  0  0  0  0
M  END
$$$$
