
 OpenBabel01122422373D

 50 53  0  0  0  0  0  0  0  0999 V2000
    6.0052    3.4691    5.9127 C   0  0  0  0  0  0  0  0  0  0  0  0
    6.5415    2.8765    4.7105 N   0  0  0  0  0  0  0  0  0  0  0  0
    6.8617    3.5570    3.5649 C   0  0  0  0  0  0  0  0  0  0  0  0
    7.3233    2.6376    2.6472 C   0  0  0  0  0  0  0  0  0  0  0  0
    7.2864    1.3495    3.2559 C   0  0  0  0  0  0  0  0  0  0  0  0
    7.6138    0.0302    2.8786 C   0  0  0  0  0  0  0  0  0  0  0  0
    8.1051   -0.2494    1.5065 C   0  0  0  0  0  0  0  0  0  0  0  0
    7.7460    0.4436    0.5605 O   0  0  0  0  0  0  0  0  0  0  0  0
    8.9870   -1.3011    1.3638 N   0  0  0  0  0  0  0  0  0  0  0  0
    9.5588   -1.5849    0.0661 C   0  0  0  0  0  0  0  0  0  0  0  0
   10.4616   -2.7873    0.1099 C   0  0  0  0  0  0  0  0  0  0  0  0
    9.9229   -4.0634   -0.0622 C   0  0  0  0  0  0  0  0  0  0  0  0
   10.7421   -5.1931   -0.0169 C   0  0  0  0  0  0  0  0  0  0  0  0
   12.1166   -5.0830    0.2060 C   0  0  0  0  0  0  0  0  0  0  0  0
   12.9853   -6.1962    0.2477 N   0  0  0  0  0  0  0  0  0  0  0  0
   12.6313   -7.5252    0.0929 C   0  0  0  0  0  0  0  0  0  0  0  0
   11.4911   -7.9407   -0.0792 O   0  0  0  0  0  0  0  0  0  0  0  0
   13.7296   -8.5445    0.1398 C   0  0  0  0  0  0  0  0  0  0  0  0
   13.3445   -9.8856   -0.0580 C   0  0  0  0  0  0  0  0  0  0  0  0
   14.2807  -10.9182   -0.0298 C   0  0  0  0  0  0  0  0  0  0  0  0
   15.6202  -10.6257    0.1991 C   0  0  0  0  0  0  0  0  0  0  0  0
   16.0240   -9.3031    0.3949 C   0  0  0  0  0  0  0  0  0  0  0  0
   15.0837   -8.2657    0.3635 C   0  0  0  0  0  0  0  0  0  0  0  0
   15.5152   -6.9781    0.5567 O   0  0  0  0  0  0  0  0  0  0  0  0
   12.6582   -3.8054    0.3882 C   0  0  0  0  0  0  0  0  0  0  0  0
   11.8376   -2.6668    0.3444 C   0  0  0  0  0  0  0  0  0  0  0  0
    7.4119   -0.9901    3.8152 C   0  0  0  0  0  0  0  0  0  0  0  0
    6.9133   -0.6557    5.0658 C   0  0  0  0  0  0  0  0  0  0  0  0
    6.5980    0.5888    5.4851 N   0  0  0  0  0  0  0  0  0  0  0  0
    6.7978    1.5375    4.5478 C   0  0  0  0  0  0  0  0  0  0  0  0
    5.9026    4.5487    5.7728 H   0  0  0  0  0  0  0  0  0  0  0  0
    6.6937    3.2688    6.7374 H   0  0  0  0  0  0  0  0  0  0  0  0
    5.0244    3.0293    6.1104 H   0  0  0  0  0  0  0  0  0  0  0  0
    6.7321    4.6286    3.4877 H   0  0  0  0  0  0  0  0  0  0  0  0
    7.6481    2.8618    1.6384 H   0  0  0  0  0  0  0  0  0  0  0  0
    9.4076   -1.7328    2.1747 H   0  0  0  0  0  0  0  0  0  0  0  0
   10.1043   -0.7001   -0.2819 H   0  0  0  0  0  0  0  0  0  0  0  0
    8.7399   -1.7493   -0.6460 H   0  0  0  0  0  0  0  0  0  0  0  0
    8.8593   -4.1960   -0.2458 H   0  0  0  0  0  0  0  0  0  0  0  0
   10.2609   -6.1530   -0.1685 H   0  0  0  0  0  0  0  0  0  0  0  0
   13.9753   -6.0146    0.3996 H   0  0  0  0  0  0  0  0  0  0  0  0
   12.2991  -10.1341   -0.2380 H   0  0  0  0  0  0  0  0  0  0  0  0
   13.9568  -11.9444   -0.1864 H   0  0  0  0  0  0  0  0  0  0  0  0
   16.3502  -11.4312    0.2239 H   0  0  0  0  0  0  0  0  0  0  0  0
   17.0777   -9.1052    0.5706 H   0  0  0  0  0  0  0  0  0  0  0  0
   16.4798   -6.9943    0.6946 H   0  0  0  0  0  0  0  0  0  0  0  0
   13.7235   -3.6749    0.5620 H   0  0  0  0  0  0  0  0  0  0  0  0
   12.2829   -1.6837    0.4842 H   0  0  0  0  0  0  0  0  0  0  0  0
    7.6018   -2.0302    3.5753 H   0  0  0  0  0  0  0  0  0  0  0  0
    6.7351   -1.4331    5.8065 H   0  0  0  0  0  0  0  0  0  0  0  0
  1  2  1  0  0  0  0
  1 31  1  0  0  0  0
  1 32  1  0  0  0  0
  1 33  1  0  0  0  0
  2  3  1  0  0  0  0
  2 30  1  0  0  0  0
  3  4  2  0  0  0  0
  3 34  1  0  0  0  0
  4  5  1  0  0  0  0
  4 35  1  0  0  0  0
  5  6  2  0  0  0  0
  5 30  1  0  0  0  0
  6  7  1  0  0  0  0
  6 27  1  0  0  0  0
  7  8  2  0  0  0  0
  7  9  1  0  0  0  0
  9 10  1  0  0  0  0
  9 36  1  0  0  0  0
 10 11  1  0  0  0  0
 10 37  1  0  0  0  0
 10 38  1  0  0  0  0
 11 12  2  0  0  0  0
 11 26  1  0  0  0  0
 12 13  1  0  0  0  0
 12 39  1  0  0  0  0
 13 14  2  0  0  0  0
 13 40  1  0  0  0  0
 14 15  1  0  0  0  0
 14 25  1  0  0  0  0
 15 16  1  0  0  0  0
 15 41  1  0  0  0  0
 16 17  2  0  0  0  0
 16 18  1  0  0  0  0
 18 19  2  0  0  0  0
 18 23  1  0  0  0  0
 19 20  1  0  0  0  0
 19 42  1  0  0  0  0
 20 21  2  0  0  0  0
 20 43  1  0  0  0  0
 21 22  1  0  0  0  0
 21 44  1  0  0  0  0
 22 23  2  0  0  0  0
 22 45  1  0  0  0  0
 23 24  1  0  0  0  0
 24 46  1  0  0  0  0
 25 26  2  0  0  0  0
 25 47  1  0  0  0  0
 26 48  1  0  0  0  0
 27 28  2  0  0  0  0
 27 49  1  0  0  0  0
 28 29  1  0  0  0  0
 28 50  1  0  0  0  0
 29 30  2  0  0  0  0
M  END
$$$$
