
 OpenBabel01122422373D

 52 55  0  0  0  0  0  0  0  0999 V2000
    3.9936    4.6517    6.9236 C   0  0  0  0  0  0  0  0  0  0  0  0
    3.6107    3.6381    5.8922 C   0  0  0  0  0  0  0  0  0  0  0  0
    4.1302    3.5874    4.6525 C   0  0  0  0  0  0  0  0  0  0  0  0
    3.7139    2.5486    3.7061 C   0  0  0  0  0  0  0  0  0  0  0  0
    4.2842    2.4324    2.4328 C   0  0  0  0  0  0  0  0  0  0  0  0
    3.8693    1.4235    1.5468 C   0  0  0  0  0  0  0  0  0  0  0  0
    4.5199    1.2963    0.1903 C   0  0  0  0  0  0  0  0  0  0  0  0
    5.6597    0.4028    0.2093 N   0  0  0  0  0  0  0  0  0  0  0  0
    6.9488    0.8502    0.4189 C   0  0  0  0  0  0  0  0  0  0  0  0
    7.2415    2.0174    0.6366 O   0  0  0  0  0  0  0  0  0  0  0  0
    8.0081   -0.1895    0.3809 C   0  0  0  0  0  0  0  0  0  0  0  0
    7.9237   -1.3167   -0.4281 C   0  0  0  0  0  0  0  0  0  0  0  0
    8.9629   -2.2491   -0.4075 C   0  0  0  0  0  0  0  0  0  0  0  0
   10.0807   -2.0550    0.4166 C   0  0  0  0  0  0  0  0  0  0  0  0
   11.0910   -3.0419    0.4403 N   0  0  0  0  0  0  0  0  0  0  0  0
   11.8835   -3.1183    1.6688 C   0  0  0  0  0  0  0  0  0  0  0  0
   11.6041   -3.7679   -0.6608 C   0  0  0  0  0  0  0  0  0  0  0  0
   11.6421   -3.2086   -1.9507 C   0  0  0  0  0  0  0  0  0  0  0  0
   12.1188   -3.9353   -3.0467 C   0  0  0  0  0  0  0  0  0  0  0  0
   12.5749   -5.2382   -2.8738 C   0  0  0  0  0  0  0  0  0  0  0  0
   12.5665   -5.8078   -1.6048 C   0  0  0  0  0  0  0  0  0  0  0  0
   12.0883   -5.0779   -0.5131 C   0  0  0  0  0  0  0  0  0  0  0  0
   10.1612   -0.9558    1.2033 N   0  0  0  0  0  0  0  0  0  0  0  0
    9.1484   -0.0430    1.1545 C   0  0  0  0  0  0  0  0  0  0  0  0
    2.8598    0.5332    1.9529 C   0  0  0  0  0  0  0  0  0  0  0  0
    2.2875    0.6434    3.2230 C   0  0  0  0  0  0  0  0  0  0  0  0
    2.7248    1.6395    4.0943 C   0  0  0  0  0  0  0  0  0  0  0  0
    2.1836    1.7207    5.3823 N   0  0  0  0  0  0  0  0  0  0  0  0
    2.5810    2.6393    6.3154 C   0  0  0  0  0  0  0  0  0  0  0  0
    2.1043    2.6420    7.4465 O   0  0  0  0  0  0  0  0  0  0  0  0
    4.7143    5.3795    6.5372 H   0  0  0  0  0  0  0  0  0  0  0  0
    4.4481    4.1594    7.7902 H   0  0  0  0  0  0  0  0  0  0  0  0
    3.1124    5.2058    7.2644 H   0  0  0  0  0  0  0  0  0  0  0  0
    4.8726    4.3073    4.3229 H   0  0  0  0  0  0  0  0  0  0  0  0
    5.0685    3.1217    2.1206 H   0  0  0  0  0  0  0  0  0  0  0  0
    4.8237    2.2813   -0.1815 H   0  0  0  0  0  0  0  0  0  0  0  0
    3.8024    0.8888   -0.5316 H   0  0  0  0  0  0  0  0  0  0  0  0
    5.4702   -0.5893    0.2361 H   0  0  0  0  0  0  0  0  0  0  0  0
    7.0805   -1.4811   -1.0917 H   0  0  0  0  0  0  0  0  0  0  0  0
    8.8870   -3.1452   -1.0172 H   0  0  0  0  0  0  0  0  0  0  0  0
   11.5089   -2.4863    2.4809 H   0  0  0  0  0  0  0  0  0  0  0  0
   12.9272   -2.8397    1.4814 H   0  0  0  0  0  0  0  0  0  0  0  0
   11.8661   -4.1377    2.0724 H   0  0  0  0  0  0  0  0  0  0  0  0
   11.3251   -2.1805   -2.1115 H   0  0  0  0  0  0  0  0  0  0  0  0
   12.1383   -3.4784   -4.0325 H   0  0  0  0  0  0  0  0  0  0  0  0
   12.9405   -5.8078   -3.7237 H   0  0  0  0  0  0  0  0  0  0  0  0
   12.9243   -6.8230   -1.4595 H   0  0  0  0  0  0  0  0  0  0  0  0
   12.0724   -5.5682    0.4561 H   0  0  0  0  0  0  0  0  0  0  0  0
    9.2901    0.8291    1.7884 H   0  0  0  0  0  0  0  0  0  0  0  0
    2.5106   -0.2511    1.2853 H   0  0  0  0  0  0  0  0  0  0  0  0
    1.5103   -0.0532    3.5254 H   0  0  0  0  0  0  0  0  0  0  0  0
    1.4890    1.0583    5.6904 H   0  0  0  0  0  0  0  0  0  0  0  0
  1  2  1  0  0  0  0
  1 31  1  0  0  0  0
  1 32  1  0  0  0  0
  1 33  1  0  0  0  0
  2  3  2  0  0  0  0
  2 29  1  0  0  0  0
  3  4  1  0  0  0  0
  3 34  1  0  0  0  0
  4  5  2  0  0  0  0
  4 27  1  0  0  0  0
  5  6  1  0  0  0  0
  5 35  1  0  0  0  0
  6  7  1  0  0  0  0
  6 25  2  0  0  0  0
  7  8  1  0  0  0  0
  7 36  1  0  0  0  0
  7 37  1  0  0  0  0
  8  9  1  0  0  0  0
  8 38  1  0  0  0  0
  9 10  2  0  0  0  0
  9 11  1  0  0  0  0
 11 12  2  0  0  0  0
 11 24  1  0  0  0  0
 12 13  1  0  0  0  0
 12 39  1  0  0  0  0
 13 14  2  0  0  0  0
 13 40  1  0  0  0  0
 14 15  1  0  0  0  0
 14 23  1  0  0  0  0
 15 16  1  0  0  0  0
 15 17  1  0  0  0  0
 16 41  1  0  0  0  0
 16 42  1  0  0  0  0
 16 43  1  0  0  0  0
 17 18  2  0  0  0  0
 17 22  1  0  0  0  0
 18 19  1  0  0  0  0
 18 44  1  0  0  0  0
 19 20  2  0  0  0  0
 19 45  1  0  0  0  0
 20 21  1  0  0  0  0
 20 46  1  0  0  0  0
 21 22  2  0  0  0  0
 21 47  1  0  0  0  0
 22 48  1  0  0  0  0
 23 24  2  0  0  0  0
 24 49  1  0  0  0  0
 25 26  1  0  0  0  0
 25 50  1  0  0  0  0
 26 27  2  0  0  0  0
 26 51  1  0  0  0  0
 27 28  1  0  0  0  0
 28 29  1  0  0  0  0
 28 52  1  0  0  0  0
 29 30  2  0  0  0  0
M  END
$$$$
