
 OpenBabel01122422353D

 47 50  0  0  0  0  0  0  0  0999 V2000
    1.1407    0.1382   -0.4185 C   0  0  0  0  0  0  0  0  0  0  0  0
    2.4435    0.0413    0.1475 O   0  0  0  0  0  0  0  0  0  0  0  0
    3.0985   -1.1551    0.0254 C   0  0  0  0  0  0  0  0  0  0  0  0
    2.7119   -2.1318   -0.8947 C   0  0  0  0  0  0  0  0  0  0  0  0
    3.3913   -3.3476   -0.9842 C   0  0  0  0  0  0  0  0  0  0  0  0
    4.4951   -3.6156   -0.1802 C   0  0  0  0  0  0  0  0  0  0  0  0
    5.2054   -4.8350   -0.2333 N   0  0  0  0  0  0  0  0  0  0  0  0
    4.9334   -5.9247   -1.0527 C   0  0  0  0  0  0  0  0  0  0  0  0
    4.0097   -6.0054   -1.8550 O   0  0  0  0  0  0  0  0  0  0  0  0
    5.8636   -7.0183   -0.8998 C   0  0  0  0  0  0  0  0  0  0  0  0
    6.8409   -7.0879   -0.0201 N   0  0  0  0  0  0  0  0  0  0  0  0
    7.5105   -8.2726   -0.2412 N   0  0  0  0  0  0  0  0  0  0  0  0
    6.9344   -8.8999   -1.2532 C   0  0  0  0  0  0  0  0  0  0  0  0
    7.3136  -10.1588   -1.8764 C   0  0  0  0  0  0  0  0  0  0  0  0
    8.4296  -10.8665   -1.4475 C   0  0  0  0  0  0  0  0  0  0  0  0
    8.7514  -12.0590   -2.0882 C   0  0  0  0  0  0  0  0  0  0  0  0
    7.9504  -12.5065   -3.1317 C   0  0  0  0  0  0  0  0  0  0  0  0
    6.8571  -11.7359   -3.4973 C   0  0  0  0  0  0  0  0  0  0  0  0
    6.5160  -10.5712   -2.8966 N   0  0  0  0  0  0  0  0  0  0  0  0
    5.8734   -8.1457   -1.6732 N   0  0  0  0  0  0  0  0  0  0  0  0
    4.9184   -2.6266    0.7183 C   0  0  0  0  0  0  0  0  0  0  0  0
    4.2132   -1.4069    0.8505 C   0  0  0  0  0  0  0  0  0  0  0  0
    4.6805   -0.3834    1.8424 C   0  0  0  0  0  0  0  0  0  0  0  0
    4.6181    0.8141    1.5737 O   0  0  0  0  0  0  0  0  0  0  0  0
    5.2807   -0.7654    3.1564 C   0  0  0  0  0  0  0  0  0  0  0  0
    4.9438   -1.9471    3.8279 C   0  0  0  0  0  0  0  0  0  0  0  0
    5.5485   -2.2573    5.0505 C   0  0  0  0  0  0  0  0  0  0  0  0
    6.4691   -1.3792    5.6224 C   0  0  0  0  0  0  0  0  0  0  0  0
    6.7870   -0.1866    4.9763 C   0  0  0  0  0  0  0  0  0  0  0  0
    6.1937    0.1205    3.7496 C   0  0  0  0  0  0  0  0  0  0  0  0
    0.7514    1.1382   -0.2069 H   0  0  0  0  0  0  0  0  0  0  0  0
    0.4672   -0.5919    0.0429 H   0  0  0  0  0  0  0  0  0  0  0  0
    1.1569    0.0248   -1.5079 H   0  0  0  0  0  0  0  0  0  0  0  0
    1.8806   -1.9858   -1.5765 H   0  0  0  0  0  0  0  0  0  0  0  0
    3.0202   -4.0572   -1.7155 H   0  0  0  0  0  0  0  0  0  0  0  0
    6.0077   -4.9498    0.3797 H   0  0  0  0  0  0  0  0  0  0  0  0
    9.0423  -10.4927   -0.6331 H   0  0  0  0  0  0  0  0  0  0  0  0
    9.6201  -12.6312   -1.7743 H   0  0  0  0  0  0  0  0  0  0  0  0
    8.1751  -13.4342   -3.6479 H   0  0  0  0  0  0  0  0  0  0  0  0
    6.2061  -12.0515   -4.3086 H   0  0  0  0  0  0  0  0  0  0  0  0
    5.2463   -8.3691   -2.4347 H   0  0  0  0  0  0  0  0  0  0  0  0
    5.8091   -2.7993    1.3177 H   0  0  0  0  0  0  0  0  0  0  0  0
    4.2052   -2.6338    3.4247 H   0  0  0  0  0  0  0  0  0  0  0  0
    5.2934   -3.1812    5.5643 H   0  0  0  0  0  0  0  0  0  0  0  0
    6.9293   -1.6181    6.5786 H   0  0  0  0  0  0  0  0  0  0  0  0
    7.4921    0.5079    5.4271 H   0  0  0  0  0  0  0  0  0  0  0  0
    6.4435    1.0590    3.2567 H   0  0  0  0  0  0  0  0  0  0  0  0
  1  2  1  0  0  0  0
  1 31  1  0  0  0  0
  1 32  1  0  0  0  0
  1 33  1  0  0  0  0
  2  3  1  0  0  0  0
  3  4  2  0  0  0  0
  3 22  1  0  0  0  0
  4  5  1  0  0  0  0
  4 34  1  0  0  0  0
  5  6  2  0  0  0  0
  5 35  1  0  0  0  0
  6  7  1  0  0  0  0
  6 21  1  0  0  0  0
  7  8  1  0  0  0  0
  7 36  1  0  0  0  0
  8  9  2  0  0  0  0
  8 10  1  0  0  0  0
 10 11  2  0  0  0  0
 10 20  1  0  0  0  0
 11 12  1  0  0  0  0
 12 13  2  0  0  0  0
 13 14  1  0  0  0  0
 13 20  1  0  0  0  0
 14 15  2  0  0  0  0
 14 19  1  0  0  0  0
 15 16  1  0  0  0  0
 15 37  1  0  0  0  0
 16 17  2  0  0  0  0
 16 38  1  0  0  0  0
 17 18  1  0  0  0  0
 17 39  1  0  0  0  0
 18 19  2  0  0  0  0
 18 40  1  0  0  0  0
 20 41  1  0  0  0  0
 21 22  2  0  0  0  0
 21 42  1  0  0  0  0
 22 23  1  0  0  0  0
 23 24  2  0  0  0  0
 23 25  1  0  0  0  0
 25 26  2  0  0  0  0
 25 30  1  0  0  0  0
 26 27  1  0  0  0  0
 26 43  1  0  0  0  0
 27 28  2  0  0  0  0
 27 44  1  0  0  0  0
 28 29  1  0  0  0  0
 28 45  1  0  0  0  0
 29 30  2  0  0  0  0
 29 46  1  0  0  0  0
 30 47  1  0  0  0  0
M  END
$$$$
