
 OpenBabel01122422373D

 45 48  0  0  0  0  0  0  0  0999 V2000
    0.9078   -0.2146   -0.2360 O   0  0  0  0  0  0  0  0  0  0  0  0
    2.0377   -0.6333   -0.4576 C   0  0  0  0  0  0  0  0  0  0  0  0
    2.7657   -1.3684    0.4579 N   0  0  0  0  0  0  0  0  0  0  0  0
    2.1907   -1.6314    1.7591 C   0  0  0  0  0  0  0  0  0  0  0  0
    3.1038   -2.4213    2.6600 C   0  0  0  0  0  0  0  0  0  0  0  0
    4.0092   -1.7715    3.5100 C   0  0  0  0  0  0  0  0  0  0  0  0
    4.8099   -2.5034    4.3957 C   0  0  0  0  0  0  0  0  0  0  0  0
    4.7367   -3.9025    4.4367 C   0  0  0  0  0  0  0  0  0  0  0  0
    5.5998   -4.6978    5.3921 C   0  0  0  0  0  0  0  0  0  0  0  0
    4.9198   -4.8535    6.6392 O   0  0  0  0  0  0  0  0  0  0  0  0
    5.5828   -5.5326    7.6273 C   0  0  0  0  0  0  0  0  0  0  0  0
    6.8341   -6.1374    7.5124 C   0  0  0  0  0  0  0  0  0  0  0  0
    7.3884   -6.7891    8.6134 C   0  0  0  0  0  0  0  0  0  0  0  0
    8.5924   -7.3660    8.4953 F   0  0  0  0  0  0  0  0  0  0  0  0
    6.7208   -6.8541    9.8307 C   0  0  0  0  0  0  0  0  0  0  0  0
    5.4686   -6.2584    9.9496 C   0  0  0  0  0  0  0  0  0  0  0  0
    4.9044   -5.6027    8.8504 C   0  0  0  0  0  0  0  0  0  0  0  0
    3.8368   -4.5515    3.5808 C   0  0  0  0  0  0  0  0  0  0  0  0
    3.0377   -3.8204    2.6944 C   0  0  0  0  0  0  0  0  0  0  0  0
    2.6881   -0.3251   -1.7589 C   0  0  0  0  0  0  0  0  0  0  0  0
    2.3176    0.8698   -2.4092 C   0  0  0  0  0  0  0  0  0  0  0  0
    2.8877    1.1591   -3.6566 C   0  0  0  0  0  0  0  0  0  0  0  0
    3.7830    0.2628   -4.2183 C   0  0  0  0  0  0  0  0  0  0  0  0
    4.1157    0.8444   -5.4054 N   0  0  0  0  0  0  0  0  0  0  0  0
    3.4890    2.0210   -5.5721 N   0  0  0  0  0  0  0  0  0  0  0  0
    2.7272    2.2235   -4.5021 N   0  0  0  0  0  0  0  0  0  0  0  0
    4.1480   -0.9227   -3.5989 C   0  0  0  0  0  0  0  0  0  0  0  0
    5.0003   -1.7741   -4.1800 F   0  0  0  0  0  0  0  0  0  0  0  0
    3.5906   -1.2160   -2.3544 C   0  0  0  0  0  0  0  0  0  0  0  0
    3.7559   -1.5247    0.3299 H   0  0  0  0  0  0  0  0  0  0  0  0
    1.2444   -2.1668    1.6122 H   0  0  0  0  0  0  0  0  0  0  0  0
    1.9345   -0.6725    2.2262 H   0  0  0  0  0  0  0  0  0  0  0  0
    4.0777   -0.6851    3.5088 H   0  0  0  0  0  0  0  0  0  0  0  0
    5.4845   -1.9712    5.0636 H   0  0  0  0  0  0  0  0  0  0  0  0
    6.5508   -4.1698    5.5379 H   0  0  0  0  0  0  0  0  0  0  0  0
    5.8083   -5.6796    4.9483 H   0  0  0  0  0  0  0  0  0  0  0  0
    7.4089   -6.1291    6.5949 H   0  0  0  0  0  0  0  0  0  0  0  0
    7.1779   -7.3665   10.6715 H   0  0  0  0  0  0  0  0  0  0  0  0
    4.9306   -6.3011   10.8933 H   0  0  0  0  0  0  0  0  0  0  0  0
    3.9253   -5.1386    8.9487 H   0  0  0  0  0  0  0  0  0  0  0  0
    3.7433   -5.6354    3.6066 H   0  0  0  0  0  0  0  0  0  0  0  0
    2.3414   -4.3508    2.0479 H   0  0  0  0  0  0  0  0  0  0  0  0
    1.6017    1.5561   -1.9656 H   0  0  0  0  0  0  0  0  0  0  0  0
    4.7401    0.5114   -6.1308 H   0  0  0  0  0  0  0  0  0  0  0  0
    3.8438   -2.1614   -1.8846 H   0  0  0  0  0  0  0  0  0  0  0  0
  1  2  2  0  0  0  0
  2  3  1  0  0  0  0
  2 20  1  0  0  0  0
  3  4  1  0  0  0  0
  3 30  1  0  0  0  0
  4  5  1  0  0  0  0
  4 31  1  0  0  0  0
  4 32  1  0  0  0  0
  5  6  2  0  0  0  0
  5 19  1  0  0  0  0
  6  7  1  0  0  0  0
  6 33  1  0  0  0  0
  7  8  2  0  0  0  0
  7 34  1  0  0  0  0
  8  9  1  0  0  0  0
  8 18  1  0  0  0  0
  9 10  1  0  0  0  0
  9 35  1  0  0  0  0
  9 36  1  0  0  0  0
 10 11  1  0  0  0  0
 11 12  2  0  0  0  0
 11 17  1  0  0  0  0
 12 13  1  0  0  0  0
 12 37  1  0  0  0  0
 13 14  1  0  0  0  0
 13 15  2  0  0  0  0
 15 16  1  0  0  0  0
 15 38  1  0  0  0  0
 16 17  2  0  0  0  0
 16 39  1  0  0  0  0
 17 40  1  0  0  0  0
 18 19  2  0  0  0  0
 18 41  1  0  0  0  0
 19 42  1  0  0  0  0
 20 21  2  0  0  0  0
 20 29  1  0  0  0  0
 21 22  1  0  0  0  0
 21 43  1  0  0  0  0
 22 23  2  0  0  0  0
 22 26  1  0  0  0  0
 23 24  1  0  0  0  0
 23 27  1  0  0  0  0
 24 25  1  0  0  0  0
 24 44  1  0  0  0  0
 25 26  2  0  0  0  0
 27 28  1  0  0  0  0
 27 29  2  0  0  0  0
 29 45  1  0  0  0  0
M  END
$$$$
