
 OpenBabel01122422373D

 40 43  0  0  0  0  0  0  0  0999 V2000
    4.8031    0.5906   -2.3712 O   0  0  0  0  0  0  0  0  0  0  0  0
    4.1514    0.2502   -1.3896 C   0  0  0  0  0  0  0  0  0  0  0  0
    2.9502    0.7939   -0.9724 N   0  0  0  0  0  0  0  0  0  0  0  0
    2.2440    1.8291   -1.6273 C   0  0  0  0  0  0  0  0  0  0  0  0
    2.5504    2.2384   -2.9181 C   0  0  0  0  0  0  0  0  0  0  0  0
    1.8369    3.2655   -3.5406 C   0  0  0  0  0  0  0  0  0  0  0  0
    0.7886    3.9406   -2.9037 C   0  0  0  0  0  0  0  0  0  0  0  0
    0.0360    4.9705   -3.6037 N   0  0  0  0  0  0  0  0  0  0  0  0
   -1.2604    5.3132   -3.2092 C   0  0  0  0  0  0  0  0  0  0  0  0
   -2.0218    6.1746   -3.8979 C   0  0  0  0  0  0  0  0  0  0  0  0
   -1.5360    6.7615   -5.1119 C   0  0  0  0  0  0  0  0  0  0  0  0
   -0.2905    6.5091   -5.5194 C   0  0  0  0  0  0  0  0  0  0  0  0
    0.6119    5.6286   -4.7252 C   0  0  0  0  0  0  0  0  0  0  0  0
    1.7775    5.5672   -5.1124 O   0  0  0  0  0  0  0  0  0  0  0  0
    0.4739    3.5167   -1.5978 C   0  0  0  0  0  0  0  0  0  0  0  0
    1.1861    2.4766   -0.9835 C   0  0  0  0  0  0  0  0  0  0  0  0
    0.8491    2.1144    0.2662 F   0  0  0  0  0  0  0  0  0  0  0  0
    4.7318   -0.7825   -0.4884 C   0  0  0  0  0  0  0  0  0  0  0  0
    3.9520   -1.2302    0.5270 N   0  0  0  0  0  0  0  0  0  0  0  0
    4.5445   -1.9895    1.4715 C   0  0  0  0  0  0  0  0  0  0  0  0
    3.8205   -2.4737    2.5494 C   0  0  0  0  0  0  0  0  0  0  0  0
    4.3351   -3.1176    3.6283 N   0  0  0  0  0  0  0  0  0  0  0  0
    5.6655   -3.3063    3.6332 C   0  0  0  0  0  0  0  0  0  0  0  0
    6.4831   -2.9488    2.5778 C   0  0  0  0  0  0  0  0  0  0  0  0
    5.9178   -2.2997    1.4596 C   0  0  0  0  0  0  0  0  0  0  0  0
    6.6485   -1.9021    0.3224 C   0  0  0  0  0  0  0  0  0  0  0  0
    8.3172   -2.3100    0.1093 Cl  0  0  0  0  0  0  0  0  0  0  0  0
    6.0551   -1.1382   -0.6666 C   0  0  0  0  0  0  0  0  0  0  0  0
    2.5968    0.4878   -0.0619 H   0  0  0  0  0  0  0  0  0  0  0  0
    3.3363    1.7688   -3.5035 H   0  0  0  0  0  0  0  0  0  0  0  0
    2.1199    3.4770   -4.5689 H   0  0  0  0  0  0  0  0  0  0  0  0
   -1.6772    4.8392   -2.3299 H   0  0  0  0  0  0  0  0  0  0  0  0
   -3.0306    6.4139   -3.5769 H   0  0  0  0  0  0  0  0  0  0  0  0
   -2.1965    7.3961   -5.6931 H   0  0  0  0  0  0  0  0  0  0  0  0
    0.1237    6.9242   -6.4300 H   0  0  0  0  0  0  0  0  0  0  0  0
   -0.3005    3.9952   -1.0078 H   0  0  0  0  0  0  0  0  0  0  0  0
    2.7430   -2.3311    2.5822 H   0  0  0  0  0  0  0  0  0  0  0  0
    6.0737   -3.7585    4.5325 H   0  0  0  0  0  0  0  0  0  0  0  0
    7.5497   -3.1385    2.6487 H   0  0  0  0  0  0  0  0  0  0  0  0
    6.6219   -0.7755   -1.5187 H   0  0  0  0  0  0  0  0  0  0  0  0
  1  2  2  0  0  0  0
  2  3  1  0  0  0  0
  2 18  1  0  0  0  0
  3  4  1  0  0  0  0
  3 29  1  0  0  0  0
  4  5  2  0  0  0  0
  4 16  1  0  0  0  0
  5  6  1  0  0  0  0
  5 30  1  0  0  0  0
  6  7  2  0  0  0  0
  6 31  1  0  0  0  0
  7  8  1  0  0  0  0
  7 15  1  0  0  0  0
  8  9  1  0  0  0  0
  8 13  1  0  0  0  0
  9 10  2  0  0  0  0
  9 32  1  0  0  0  0
 10 11  1  0  0  0  0
 10 33  1  0  0  0  0
 11 12  2  0  0  0  0
 11 34  1  0  0  0  0
 12 13  1  0  0  0  0
 12 35  1  0  0  0  0
 13 14  2  0  0  0  0
 15 16  2  0  0  0  0
 15 36  1  0  0  0  0
 16 17  1  0  0  0  0
 18 19  2  0  0  0  0
 18 28  1  0  0  0  0
 19 20  1  0  0  0  0
 20 21  2  0  0  0  0
 20 25  1  0  0  0  0
 21 22  1  0  0  0  0
 21 37  1  0  0  0  0
 22 23  2  0  0  0  0
 23 24  1  0  0  0  0
 23 38  1  0  0  0  0
 24 25  2  0  0  0  0
 24 39  1  0  0  0  0
 25 26  1  0  0  0  0
 26 27  1  0  0  0  0
 26 28  2  0  0  0  0
 28 40  1  0  0  0  0
M  END
$$$$
