
 OpenBabel01122422373D

 46 49  0  0  0  0  0  0  0  0999 V2000
    4.2728   -3.7216   -3.9001 C   0  0  0  0  0  0  0  0  0  0  0  0
    2.9382   -3.0355   -3.6316 C   0  0  0  0  0  0  0  0  0  0  0  0
    3.1390   -1.7610   -2.8493 C   0  0  0  0  0  0  0  0  0  0  0  0
    3.3960   -0.6665   -3.6199 N   0  0  0  0  0  0  0  0  0  0  0  0
    3.7298    0.4945   -3.0348 C   0  0  0  0  0  0  0  0  0  0  0  0
    4.0215    1.5941   -3.8215 C   0  0  0  0  0  0  0  0  0  0  0  0
    4.4282    2.7924   -3.2454 C   0  0  0  0  0  0  0  0  0  0  0  0
    4.7198    3.8377   -4.0314 F   0  0  0  0  0  0  0  0  0  0  0  0
    4.5475    2.9218   -1.8686 C   0  0  0  0  0  0  0  0  0  0  0  0
    4.2338    1.8372   -1.0562 C   0  0  0  0  0  0  0  0  0  0  0  0
    3.8199    0.6259   -1.6329 C   0  0  0  0  0  0  0  0  0  0  0  0
    3.4998   -0.4856   -0.8482 C   0  0  0  0  0  0  0  0  0  0  0  0
    3.1377   -1.6943   -1.4533 C   0  0  0  0  0  0  0  0  0  0  0  0
    2.8339   -2.8598   -0.5858 C   0  0  0  0  0  0  0  0  0  0  0  0
    3.2462   -3.9689   -0.8913 O   0  0  0  0  0  0  0  0  0  0  0  0
    2.0466   -2.5785    0.5271 N   0  0  0  0  0  0  0  0  0  0  0  0
    1.6901   -3.4875    1.5042 C   0  0  0  0  0  0  0  0  0  0  0  0
    2.2885   -4.6511    1.7532 C   0  0  0  0  0  0  0  0  0  0  0  0
    1.8005   -5.5863    2.7890 C   0  0  0  0  0  0  0  0  0  0  0  0
    2.4357   -6.6298    2.9279 O   0  0  0  0  0  0  0  0  0  0  0  0
    0.6302   -5.2055    3.4594 N   0  0  0  0  0  0  0  0  0  0  0  0
   -0.0444   -6.0645    4.3889 C   0  0  0  0  0  0  0  0  0  0  0  0
    0.6187   -7.1039    5.0576 C   0  0  0  0  0  0  0  0  0  0  0  0
   -0.0668   -7.9807    5.9039 C   0  0  0  0  0  0  0  0  0  0  0  0
   -1.4348   -7.8351    6.0969 C   0  0  0  0  0  0  0  0  0  0  0  0
   -2.1129   -6.7953    5.4672 C   0  0  0  0  0  0  0  0  0  0  0  0
   -1.4203   -5.9075    4.6345 C   0  0  0  0  0  0  0  0  0  0  0  0
    0.0088   -3.9820    3.2527 N   0  0  0  0  0  0  0  0  0  0  0  0
    0.5334   -3.1920    2.3754 C   0  0  0  0  0  0  0  0  0  0  0  0
    4.1142   -4.7002   -4.3627 H   0  0  0  0  0  0  0  0  0  0  0  0
    4.8511   -3.8676   -2.9817 H   0  0  0  0  0  0  0  0  0  0  0  0
    4.8885   -3.1231   -4.5816 H   0  0  0  0  0  0  0  0  0  0  0  0
    2.2377   -3.7100   -3.1306 H   0  0  0  0  0  0  0  0  0  0  0  0
    2.4726   -2.7913   -4.5958 H   0  0  0  0  0  0  0  0  0  0  0  0
    3.9476    1.5201   -4.9025 H   0  0  0  0  0  0  0  0  0  0  0  0
    4.8844    3.8608   -1.4427 H   0  0  0  0  0  0  0  0  0  0  0  0
    4.3284    1.9384    0.0231 H   0  0  0  0  0  0  0  0  0  0  0  0
    3.5824   -0.4193    0.2344 H   0  0  0  0  0  0  0  0  0  0  0  0
    1.5855   -1.6775    0.5510 H   0  0  0  0  0  0  0  0  0  0  0  0
    3.1580   -5.0028    1.2144 H   0  0  0  0  0  0  0  0  0  0  0  0
    1.6905   -7.2481    4.9557 H   0  0  0  0  0  0  0  0  0  0  0  0
    0.4770   -8.7787    6.4026 H   0  0  0  0  0  0  0  0  0  0  0  0
   -1.9707   -8.5323    6.7362 H   0  0  0  0  0  0  0  0  0  0  0  0
   -3.1837   -6.6816    5.6097 H   0  0  0  0  0  0  0  0  0  0  0  0
   -1.9834   -5.1216    4.1369 H   0  0  0  0  0  0  0  0  0  0  0  0
    0.0664   -2.2031    2.2303 H   0  0  0  0  0  0  0  0  0  0  0  0
  1  2  1  0  0  0  0
  1 30  1  0  0  0  0
  1 31  1  0  0  0  0
  1 32  1  0  0  0  0
  2  3  1  0  0  0  0
  2 33  1  0  0  0  0
  2 34  1  0  0  0  0
  3  4  2  0  0  0  0
  3 13  1  0  0  0  0
  4  5  1  0  0  0  0
  5  6  2  0  0  0  0
  5 11  1  0  0  0  0
  6  7  1  0  0  0  0
  6 35  1  0  0  0  0
  7  8  1  0  0  0  0
  7  9  2  0  0  0  0
  9 10  1  0  0  0  0
  9 36  1  0  0  0  0
 10 11  2  0  0  0  0
 10 37  1  0  0  0  0
 11 12  1  0  0  0  0
 12 13  2  0  0  0  0
 12 38  1  0  0  0  0
 13 14  1  0  0  0  0
 14 15  2  0  0  0  0
 14 16  1  0  0  0  0
 16 17  1  0  0  0  0
 16 39  1  0  0  0  0
 17 18  2  0  0  0  0
 17 29  1  0  0  0  0
 18 19  1  0  0  0  0
 18 40  1  0  0  0  0
 19 20  2  0  0  0  0
 19 21  1  0  0  0  0
 21 22  1  0  0  0  0
 21 28  1  0  0  0  0
 22 23  2  0  0  0  0
 22 27  1  0  0  0  0
 23 24  1  0  0  0  0
 23 41  1  0  0  0  0
 24 25  2  0  0  0  0
 24 42  1  0  0  0  0
 25 26  1  0  0  0  0
 25 43  1  0  0  0  0
 26 27  2  0  0  0  0
 26 44  1  0  0  0  0
 27 45  1  0  0  0  0
 28 29  2  0  0  0  0
 29 46  1  0  0  0  0
M  END
$$$$
