
 OpenBabel01122422373D

 45 48  0  0  0  0  0  0  0  0999 V2000
    0.9760    0.1591    0.2830 O   0  0  0  0  0  0  0  0  0  0  0  0
    2.1729    0.0610    0.0336 C   0  0  0  0  0  0  0  0  0  0  0  0
    2.7445   -0.7542   -0.9132 N   0  0  0  0  0  0  0  0  0  0  0  0
    2.0735   -1.5670   -1.8370 C   0  0  0  0  0  0  0  0  0  0  0  0
    0.7174   -1.4201   -2.1039 C   0  0  0  0  0  0  0  0  0  0  0  0
    0.0674   -2.3134   -2.9447 C   0  0  0  0  0  0  0  0  0  0  0  0
    0.7621   -3.3717   -3.5410 C   0  0  0  0  0  0  0  0  0  0  0  0
    0.0390   -4.3516   -4.3438 C   0  0  0  0  0  0  0  0  0  0  0  0
    0.5148   -5.0893   -5.3296 N   0  0  0  0  0  0  0  0  0  0  0  0
   -0.5421   -5.8388   -5.7850 C   0  0  0  0  0  0  0  0  0  0  0  0
   -1.6739   -5.5847   -5.0439 C   0  0  0  0  0  0  0  0  0  0  0  0
   -1.2888   -4.6480   -4.1352 N   0  0  0  0  0  0  0  0  0  0  0  0
    2.1404   -3.4736   -3.3368 C   0  0  0  0  0  0  0  0  0  0  0  0
    2.8009   -2.5698   -2.4927 C   0  0  0  0  0  0  0  0  0  0  0  0
    3.0423    0.7415    0.8566 N   0  0  0  0  0  0  0  0  0  0  0  0
    4.4072    0.8580    0.8018 C   0  0  0  0  0  0  0  0  0  0  0  0
    5.1016    0.8380   -0.3460 C   0  0  0  0  0  0  0  0  0  0  0  0
    6.5762    0.7183   -0.3423 C   0  0  0  0  0  0  0  0  0  0  0  0
    7.1343    0.6009   -1.4331 O   0  0  0  0  0  0  0  0  0  0  0  0
    7.1794    0.6485    0.9166 N   0  0  0  0  0  0  0  0  0  0  0  0
    8.5729    0.3738    0.9884 C   0  0  0  0  0  0  0  0  0  0  0  0
    9.4936    1.1567    0.2855 C   0  0  0  0  0  0  0  0  0  0  0  0
   10.8621    0.9310    0.4402 C   0  0  0  0  0  0  0  0  0  0  0  0
   11.3127   -0.1032    1.2606 C   0  0  0  0  0  0  0  0  0  0  0  0
   10.3982   -0.9176    1.9260 C   0  0  0  0  0  0  0  0  0  0  0  0
    9.0314   -0.6719    1.8011 C   0  0  0  0  0  0  0  0  0  0  0  0
    6.4380    0.8148    2.0792 C   0  0  0  0  0  0  0  0  0  0  0  0
    5.1070    0.9597    2.0535 C   0  0  0  0  0  0  0  0  0  0  0  0
    3.7134   -0.9884   -0.7814 H   0  0  0  0  0  0  0  0  0  0  0  0
    0.1293   -0.6200   -1.6607 H   0  0  0  0  0  0  0  0  0  0  0  0
   -0.9937   -2.1629   -3.1191 H   0  0  0  0  0  0  0  0  0  0  0  0
   -0.4332   -6.5206   -6.6120 H   0  0  0  0  0  0  0  0  0  0  0  0
   -2.6801   -5.9752   -5.0846 H   0  0  0  0  0  0  0  0  0  0  0  0
   -1.8684   -4.2364   -3.4169 H   0  0  0  0  0  0  0  0  0  0  0  0
    2.7079   -4.2782   -3.8092 H   0  0  0  0  0  0  0  0  0  0  0  0
    3.8705   -2.6857   -2.3332 H   0  0  0  0  0  0  0  0  0  0  0  0
    2.5582    1.0826    1.6820 H   0  0  0  0  0  0  0  0  0  0  0  0
    4.6495    0.8254   -1.3277 H   0  0  0  0  0  0  0  0  0  0  0  0
    9.1558    1.9747   -0.3453 H   0  0  0  0  0  0  0  0  0  0  0  0
   11.5754    1.5728   -0.0693 H   0  0  0  0  0  0  0  0  0  0  0  0
   12.3792   -0.2723    1.3834 H   0  0  0  0  0  0  0  0  0  0  0  0
   10.7479   -1.7368    2.5482 H   0  0  0  0  0  0  0  0  0  0  0  0
    8.3267   -1.3260    2.3089 H   0  0  0  0  0  0  0  0  0  0  0  0
    6.9924    0.8608    3.0127 H   0  0  0  0  0  0  0  0  0  0  0  0
    4.5553    1.1068    2.9782 H   0  0  0  0  0  0  0  0  0  0  0  0
  1  2  2  0  0  0  0
  2  3  1  0  0  0  0
  2 15  1  0  0  0  0
  3  4  1  0  0  0  0
  3 29  1  0  0  0  0
  4  5  2  0  0  0  0
  4 14  1  0  0  0  0
  5  6  1  0  0  0  0
  5 30  1  0  0  0  0
  6  7  2  0  0  0  0
  6 31  1  0  0  0  0
  7  8  1  0  0  0  0
  7 13  1  0  0  0  0
  8  9  2  0  0  0  0
  8 12  1  0  0  0  0
  9 10  1  0  0  0  0
 10 11  2  0  0  0  0
 10 32  1  0  0  0  0
 11 12  1  0  0  0  0
 11 33  1  0  0  0  0
 12 34  1  0  0  0  0
 13 14  2  0  0  0  0
 13 35  1  0  0  0  0
 14 36  1  0  0  0  0
 15 16  1  0  0  0  0
 15 37  1  0  0  0  0
 16 17  2  0  0  0  0
 16 28  1  0  0  0  0
 17 18  1  0  0  0  0
 17 38  1  0  0  0  0
 18 19  2  0  0  0  0
 18 20  1  0  0  0  0
 20 21  1  0  0  0  0
 20 27  1  0  0  0  0
 21 22  2  0  0  0  0
 21 26  1  0  0  0  0
 22 23  1  0  0  0  0
 22 39  1  0  0  0  0
 23 24  2  0  0  0  0
 23 40  1  0  0  0  0
 24 25  1  0  0  0  0
 24 41  1  0  0  0  0
 25 26  2  0  0  0  0
 25 42  1  0  0  0  0
 26 43  1  0  0  0  0
 27 28  2  0  0  0  0
 27 44  1  0  0  0  0
 28 45  1  0  0  0  0
M  END
$$$$
