
 OpenBabel01122422373D

 43 46  0  0  0  0  0  0  0  0999 V2000
   -3.2700    0.6227    0.0476 O   0  0  0  0  0  0  0  0  0  0  0  0
   -2.0961    0.2430    0.0071 C   0  0  0  0  0  0  0  0  0  0  0  0
   -1.7514   -1.1948    0.3624 C   0  0  0  0  0  0  0  0  0  0  0  0
   -0.5185   -1.6944   -0.2646 N   0  0  0  0  0  0  0  0  0  0  0  0
   -0.4101   -2.9020   -0.9806 C   0  0  0  0  0  0  0  0  0  0  0  0
    0.6343   -3.2199   -1.5698 O   0  0  0  0  0  0  0  0  0  0  0  0
   -1.6529   -3.8295   -1.1241 C   0  0  0  0  0  0  0  0  0  0  0  0
   -1.2484   -5.1397   -1.2422 F   0  0  0  0  0  0  0  0  0  0  0  0
   -2.3982   -3.8526    0.0313 F   0  0  0  0  0  0  0  0  0  0  0  0
   -2.4555   -3.3760   -2.3379 C   0  0  0  0  0  0  0  0  0  0  0  0
   -3.4202   -2.4196   -2.1719 N   0  0  0  0  0  0  0  0  0  0  0  0
   -4.1078   -2.0188   -3.2683 C   0  0  0  0  0  0  0  0  0  0  0  0
   -3.8821   -2.5200   -4.5385 C   0  0  0  0  0  0  0  0  0  0  0  0
   -2.8887   -3.4787   -4.7001 C   0  0  0  0  0  0  0  0  0  0  0  0
   -2.1661   -3.9046   -3.5901 C   0  0  0  0  0  0  0  0  0  0  0  0
   -1.1994   -4.8148   -3.7571 F   0  0  0  0  0  0  0  0  0  0  0  0
    0.5886   -0.7935   -0.1412 C   0  0  0  0  0  0  0  0  0  0  0  0
    1.9117   -1.2544   -0.0475 C   0  0  0  0  0  0  0  0  0  0  0  0
    2.9784   -0.3607    0.0839 C   0  0  0  0  0  0  0  0  0  0  0  0
    2.7366    1.0047    0.1238 C   0  0  0  0  0  0  0  0  0  0  0  0
    1.4297    1.4772    0.0306 C   0  0  0  0  0  0  0  0  0  0  0  0
    0.3407    0.5933   -0.1143 C   0  0  0  0  0  0  0  0  0  0  0  0
   -1.0029    1.0772   -0.2148 N   0  0  0  0  0  0  0  0  0  0  0  0
   -1.2137    2.4307   -0.5997 C   0  0  0  0  0  0  0  0  0  0  0  0
   -1.9716    3.2894    0.2017 C   0  0  0  0  0  0  0  0  0  0  0  0
   -2.1355    4.6281   -0.1649 C   0  0  0  0  0  0  0  0  0  0  0  0
   -1.5751    5.1029   -1.3504 C   0  0  0  0  0  0  0  0  0  0  0  0
   -0.8559    4.2416   -2.1772 C   0  0  0  0  0  0  0  0  0  0  0  0
   -0.6722    2.9115   -1.8025 C   0  0  0  0  0  0  0  0  0  0  0  0
   -2.6184   -1.7938    0.1030 H   0  0  0  0  0  0  0  0  0  0  0  0
   -1.6180   -1.2583    1.4494 H   0  0  0  0  0  0  0  0  0  0  0  0
   -4.8671   -1.2614   -3.0885 H   0  0  0  0  0  0  0  0  0  0  0  0
   -4.4658   -2.1702   -5.3842 H   0  0  0  0  0  0  0  0  0  0  0  0
   -2.6703   -3.8973   -5.6784 H   0  0  0  0  0  0  0  0  0  0  0  0
    2.1403   -2.3162   -0.0389 H   0  0  0  0  0  0  0  0  0  0  0  0
    3.9946   -0.7381    0.1669 H   0  0  0  0  0  0  0  0  0  0  0  0
    3.5619    1.7037    0.2381 H   0  0  0  0  0  0  0  0  0  0  0  0
    1.2799    2.5532    0.0996 H   0  0  0  0  0  0  0  0  0  0  0  0
   -2.4142    2.9334    1.1290 H   0  0  0  0  0  0  0  0  0  0  0  0
   -2.6999    5.2979    0.4770 H   0  0  0  0  0  0  0  0  0  0  0  0
   -1.7077    6.1430   -1.6346 H   0  0  0  0  0  0  0  0  0  0  0  0
   -0.4408    4.6039   -3.1141 H   0  0  0  0  0  0  0  0  0  0  0  0
   -0.1249    2.2442   -2.4646 H   0  0  0  0  0  0  0  0  0  0  0  0
  1  2  2  0  0  0  0
  2  3  1  0  0  0  0
  2 23  1  0  0  0  0
  3  4  1  0  0  0  0
  3 30  1  0  0  0  0
  3 31  1  0  0  0  0
  4  5  1  0  0  0  0
  4 17  1  0  0  0  0
  5  6  2  0  0  0  0
  5  7  1  0  0  0  0
  7  8  1  0  0  0  0
  7  9  1  0  0  0  0
  7 10  1  0  0  0  0
 10 11  2  0  0  0  0
 10 15  1  0  0  0  0
 11 12  1  0  0  0  0
 12 13  2  0  0  0  0
 12 32  1  0  0  0  0
 13 14  1  0  0  0  0
 13 33  1  0  0  0  0
 14 15  2  0  0  0  0
 14 34  1  0  0  0  0
 15 16  1  0  0  0  0
 17 18  2  0  0  0  0
 17 22  1  0  0  0  0
 18 19  1  0  0  0  0
 18 35  1  0  0  0  0
 19 20  2  0  0  0  0
 19 36  1  0  0  0  0
 20 21  1  0  0  0  0
 20 37  1  0  0  0  0
 21 22  2  0  0  0  0
 21 38  1  0  0  0  0
 22 23  1  0  0  0  0
 23 24  1  0  0  0  0
 24 25  2  0  0  0  0
 24 29  1  0  0  0  0
 25 26  1  0  0  0  0
 25 39  1  0  0  0  0
 26 27  2  0  0  0  0
 26 40  1  0  0  0  0
 27 28  1  0  0  0  0
 27 41  1  0  0  0  0
 28 29  2  0  0  0  0
 28 42  1  0  0  0  0
 29 43  1  0  0  0  0
M  END
$$$$
