
 OpenBabel01122422373D

 52 55  0  0  0  0  0  0  0  0999 V2000
    2.2343    1.0125    3.4677 C   0  0  0  0  0  0  0  0  0  0  0  0
    2.2844   -0.4922    3.5620 C   0  0  0  0  0  0  0  0  0  0  0  0
    1.2720   -1.2966    3.1772 C   0  0  0  0  0  0  0  0  0  0  0  0
   -0.0513   -0.9095    2.5805 C   0  0  0  0  0  0  0  0  0  0  0  0
   -0.2882   -1.4953    1.1861 C   0  0  0  0  0  0  0  0  0  0  0  0
    0.0828   -0.9176    0.1695 O   0  0  0  0  0  0  0  0  0  0  0  0
   -0.9786   -2.6984    1.1611 N   0  0  0  0  0  0  0  0  0  0  0  0
   -1.2293   -3.3462   -0.1075 C   0  0  0  0  0  0  0  0  0  0  0  0
   -1.9772   -4.6553    0.0211 C   0  0  0  0  0  0  0  0  0  0  0  0
   -3.3661   -4.6474    0.0911 C   0  0  0  0  0  0  0  0  0  0  0  0
   -4.0623   -5.8671    0.1211 C   0  0  0  0  0  0  0  0  0  0  0  0
   -3.4240   -7.1191    0.0470 C   0  0  0  0  0  0  0  0  0  0  0  0
   -4.2326   -8.3547   -0.0779 C   0  0  0  0  0  0  0  0  0  0  0  0
   -5.4825   -8.2812   -0.7264 C   0  0  0  0  0  0  0  0  0  0  0  0
   -6.3712   -9.3474   -0.7380 C   0  0  0  0  0  0  0  0  0  0  0  0
   -5.9588  -10.5832   -0.2554 C   0  0  0  0  0  0  0  0  0  0  0  0
   -6.8251  -11.6659   -0.3053 C   0  0  0  0  0  0  0  0  0  0  0  0
   -6.3210  -12.9328   -0.5118 C   0  0  0  0  0  0  0  0  0  0  0  0
   -5.0092  -13.1672   -0.1357 C   0  0  0  0  0  0  0  0  0  0  0  0
   -4.2157  -12.1118    0.3433 C   0  0  0  0  0  0  0  0  0  0  0  0
   -4.6422  -10.7765    0.1802 C   0  0  0  0  0  0  0  0  0  0  0  0
   -3.8259   -9.6304    0.3710 C   0  0  0  0  0  0  0  0  0  0  0  0
   -2.0249   -7.0939    0.0640 C   0  0  0  0  0  0  0  0  0  0  0  0
   -1.3090   -5.8622    0.0283 C   0  0  0  0  0  0  0  0  0  0  0  0
    1.4382   -2.7386    3.4716 C   0  0  0  0  0  0  0  0  0  0  0  0
    0.5500   -3.5552    3.2438 O   0  0  0  0  0  0  0  0  0  0  0  0
    2.6122   -3.1086    4.0460 N   0  0  0  0  0  0  0  0  0  0  0  0
    3.5680   -2.2079    4.3878 C   0  0  0  0  0  0  0  0  0  0  0  0
    4.6807   -2.6895    4.9895 N   0  0  0  0  0  0  0  0  0  0  0  0
    3.4428   -0.9459    4.1524 N   0  0  0  0  0  0  0  0  0  0  0  0
    1.2214    1.4032    3.5922 H   0  0  0  0  0  0  0  0  0  0  0  0
    2.6405    1.3557    2.5113 H   0  0  0  0  0  0  0  0  0  0  0  0
    2.8337    1.4647    4.2683 H   0  0  0  0  0  0  0  0  0  0  0  0
   -0.1528    0.1757    2.4749 H   0  0  0  0  0  0  0  0  0  0  0  0
   -0.8633   -1.2199    3.2480 H   0  0  0  0  0  0  0  0  0  0  0  0
   -0.8490   -3.2952    1.9811 H   0  0  0  0  0  0  0  0  0  0  0  0
   -0.2739   -3.5006   -0.6194 H   0  0  0  0  0  0  0  0  0  0  0  0
   -1.8140   -2.6546   -0.7227 H   0  0  0  0  0  0  0  0  0  0  0  0
   -3.9296   -3.7216    0.0931 H   0  0  0  0  0  0  0  0  0  0  0  0
   -5.1606   -5.8045    0.1658 H   0  0  0  0  0  0  0  0  0  0  0  0
   -5.7845   -7.3742   -1.2464 H   0  0  0  0  0  0  0  0  0  0  0  0
   -7.3329   -9.2330   -1.2331 H   0  0  0  0  0  0  0  0  0  0  0  0
   -7.8115  -11.5665    0.1513 H   0  0  0  0  0  0  0  0  0  0  0  0
   -6.9628  -13.7174   -0.9011 H   0  0  0  0  0  0  0  0  0  0  0  0
   -4.6179  -14.1781   -0.1888 H   0  0  0  0  0  0  0  0  0  0  0  0
   -3.2247  -12.3355    0.7242 H   0  0  0  0  0  0  0  0  0  0  0  0
   -2.8505   -9.7642    0.8324 H   0  0  0  0  0  0  0  0  0  0  0  0
   -1.4603   -8.0225    0.0122 H   0  0  0  0  0  0  0  0  0  0  0  0
   -0.2413   -5.9207    0.0322 H   0  0  0  0  0  0  0  0  0  0  0  0
    2.7058   -4.0777    4.2924 H   0  0  0  0  0  0  0  0  0  0  0  0
    4.9866   -3.6206    4.7442 H   0  0  0  0  0  0  0  0  0  0  0  0
    5.4298   -2.0050    4.9845 H   0  0  0  0  0  0  0  0  0  0  0  0
  1  2  1  0  0  0  0
  1 31  1  0  0  0  0
  1 32  1  0  0  0  0
  1 33  1  0  0  0  0
  2  3  2  0  0  0  0
  2 30  1  0  0  0  0
  3  4  1  0  0  0  0
  3 25  1  0  0  0  0
  4  5  1  0  0  0  0
  4 34  1  0  0  0  0
  4 35  1  0  0  0  0
  5  6  2  0  0  0  0
  5  7  1  0  0  0  0
  7  8  1  0  0  0  0
  7 36  1  0  0  0  0
  8  9  1  0  0  0  0
  8 37  1  0  0  0  0
  8 38  1  0  0  0  0
  9 10  2  0  0  0  0
  9 24  1  0  0  0  0
 10 11  1  0  0  0  0
 10 39  1  0  0  0  0
 11 12  2  0  0  0  0
 11 40  1  0  0  0  0
 12 13  1  0  0  0  0
 12 23  1  0  0  0  0
 13 14  2  0  0  0  0
 13 22  1  0  0  0  0
 14 15  1  0  0  0  0
 14 41  1  0  0  0  0
 15 16  2  0  0  0  0
 15 42  1  0  0  0  0
 16 17  1  0  0  0  0
 16 21  1  0  0  0  0
 17 18  2  0  0  0  0
 17 43  1  0  0  0  0
 18 19  1  0  0  0  0
 18 44  1  0  0  0  0
 19 20  2  0  0  0  0
 19 45  1  0  0  0  0
 20 21  1  0  0  0  0
 20 46  1  0  0  0  0
 21 22  2  0  0  0  0
 22 47  1  0  0  0  0
 23 24  2  0  0  0  0
 23 48  1  0  0  0  0
 24 49  1  0  0  0  0
 25 26  2  0  0  0  0
 25 27  1  0  0  0  0
 27 28  1  0  0  0  0
 27 50  1  0  0  0  0
 28 29  1  0  0  0  0
 28 30  2  0  0  0  0
 29 51  1  0  0  0  0
 29 52  1  0  0  0  0
M  END
$$$$
