
 OpenBabel01122422373D

 54 57  0  0  0  0  0  0  0  0999 V2000
    4.3899   -3.0937   -4.5481 C   0  0  0  0  0  0  0  0  0  0  0  0
    4.9511   -3.1608   -3.2167 N   0  0  0  0  0  0  0  0  0  0  0  0
    5.0255   -2.1077   -2.3451 C   0  0  0  0  0  0  0  0  0  0  0  0
    5.5980   -2.5496   -1.1672 C   0  0  0  0  0  0  0  0  0  0  0  0
    5.8424   -1.7187    0.0593 C   0  0  0  0  0  0  0  0  0  0  0  0
    7.1623   -0.9465    0.0271 C   0  0  0  0  0  0  0  0  0  0  0  0
    8.3365   -1.7983    0.1182 N   0  0  0  0  0  0  0  0  0  0  0  0
    9.5696   -1.2014    0.2373 C   0  0  0  0  0  0  0  0  0  0  0  0
    9.7355   -0.0201    0.5128 O   0  0  0  0  0  0  0  0  0  0  0  0
   10.5900   -2.0931    0.0472 N   0  0  0  0  0  0  0  0  0  0  0  0
   11.9647   -1.6447   -0.0169 C   0  0  0  0  0  0  0  0  0  0  0  0
   12.2904   -0.8735   -1.2602 C   0  0  0  0  0  0  0  0  0  0  0  0
   11.4191   -0.7076   -2.2675 N   0  0  0  0  0  0  0  0  0  0  0  0
   12.0490    0.1109   -3.1862 O   0  0  0  0  0  0  0  0  0  0  0  0
   13.3048    0.3967   -2.7535 C   0  0  0  0  0  0  0  0  0  0  0  0
   14.1274    1.2579   -3.6289 C   0  0  0  0  0  0  0  0  0  0  0  0
   14.7634    0.3824   -4.5529 O   0  0  0  0  0  0  0  0  0  0  0  0
   15.6147    0.9357   -5.4672 C   0  0  0  0  0  0  0  0  0  0  0  0
   15.9177    2.2940   -5.5846 C   0  0  0  0  0  0  0  0  0  0  0  0
   16.8212    2.7294   -6.5615 C   0  0  0  0  0  0  0  0  0  0  0  0
   17.4230    1.8149   -7.4265 C   0  0  0  0  0  0  0  0  0  0  0  0
   17.1207    0.4603   -7.3191 C   0  0  0  0  0  0  0  0  0  0  0  0
   16.2233    0.0326   -6.3452 C   0  0  0  0  0  0  0  0  0  0  0  0
   15.9501   -1.2785   -6.2582 F   0  0  0  0  0  0  0  0  0  0  0  0
   13.5174   -0.2226   -1.5467 C   0  0  0  0  0  0  0  0  0  0  0  0
    5.8792   -3.9415   -1.3426 C   0  0  0  0  0  0  0  0  0  0  0  0
    6.4439   -4.9378   -0.5152 C   0  0  0  0  0  0  0  0  0  0  0  0
    6.5846   -6.2444   -0.9995 C   0  0  0  0  0  0  0  0  0  0  0  0
    6.1640   -6.5565   -2.2853 C   0  0  0  0  0  0  0  0  0  0  0  0
    6.3138   -7.8140   -2.7277 F   0  0  0  0  0  0  0  0  0  0  0  0
    5.6079   -5.6055   -3.1313 C   0  0  0  0  0  0  0  0  0  0  0  0
    5.4680   -4.2968   -2.6350 C   0  0  0  0  0  0  0  0  0  0  0  0
    4.0491   -2.0756   -4.7520 H   0  0  0  0  0  0  0  0  0  0  0  0
    3.5433   -3.7837   -4.6010 H   0  0  0  0  0  0  0  0  0  0  0  0
    5.1646   -3.3760   -5.2651 H   0  0  0  0  0  0  0  0  0  0  0  0
    4.6617   -1.1268   -2.6249 H   0  0  0  0  0  0  0  0  0  0  0  0
    5.8007   -2.3532    0.9526 H   0  0  0  0  0  0  0  0  0  0  0  0
    5.0218   -0.9954    0.1534 H   0  0  0  0  0  0  0  0  0  0  0  0
    7.1906   -0.2412    0.8663 H   0  0  0  0  0  0  0  0  0  0  0  0
    7.2533   -0.3611   -0.8957 H   0  0  0  0  0  0  0  0  0  0  0  0
    8.3174   -2.6279   -0.4555 H   0  0  0  0  0  0  0  0  0  0  0  0
   10.3725   -3.0108   -0.3025 H   0  0  0  0  0  0  0  0  0  0  0  0
   12.5976   -2.5371    0.0338 H   0  0  0  0  0  0  0  0  0  0  0  0
   12.1702   -1.0252    0.8635 H   0  0  0  0  0  0  0  0  0  0  0  0
   14.8754    1.7855   -3.0245 H   0  0  0  0  0  0  0  0  0  0  0  0
   13.4931    1.9837   -4.1513 H   0  0  0  0  0  0  0  0  0  0  0  0
   15.4724    3.0423   -4.9372 H   0  0  0  0  0  0  0  0  0  0  0  0
   17.0561    3.7883   -6.6471 H   0  0  0  0  0  0  0  0  0  0  0  0
   18.1246    2.1580   -8.1823 H   0  0  0  0  0  0  0  0  0  0  0  0
   17.5756   -0.2678   -7.9826 H   0  0  0  0  0  0  0  0  0  0  0  0
   14.4170   -0.1963   -0.9506 H   0  0  0  0  0  0  0  0  0  0  0  0
    6.7623   -4.6965    0.4967 H   0  0  0  0  0  0  0  0  0  0  0  0
    7.0141   -7.0168   -0.3681 H   0  0  0  0  0  0  0  0  0  0  0  0
    5.2895   -5.8786   -4.1289 H   0  0  0  0  0  0  0  0  0  0  0  0
  1  2  1  0  0  0  0
  1 33  1  0  0  0  0
  1 34  1  0  0  0  0
  1 35  1  0  0  0  0
  2  3  1  0  0  0  0
  2 32  1  0  0  0  0
  3  4  2  0  0  0  0
  3 36  1  0  0  0  0
  4  5  1  0  0  0  0
  4 26  1  0  0  0  0
  5  6  1  0  0  0  0
  5 37  1  0  0  0  0
  5 38  1  0  0  0  0
  6  7  1  0  0  0  0
  6 39  1  0  0  0  0
  6 40  1  0  0  0  0
  7  8  1  0  0  0  0
  7 41  1  0  0  0  0
  8  9  2  0  0  0  0
  8 10  1  0  0  0  0
 10 11  1  0  0  0  0
 10 42  1  0  0  0  0
 11 12  1  0  0  0  0
 11 43  1  0  0  0  0
 11 44  1  0  0  0  0
 12 13  2  0  0  0  0
 12 25  1  0  0  0  0
 13 14  1  0  0  0  0
 14 15  1  0  0  0  0
 15 16  1  0  0  0  0
 15 25  2  0  0  0  0
 16 17  1  0  0  0  0
 16 45  1  0  0  0  0
 16 46  1  0  0  0  0
 17 18  1  0  0  0  0
 18 19  2  0  0  0  0
 18 23  1  0  0  0  0
 19 20  1  0  0  0  0
 19 47  1  0  0  0  0
 20 21  2  0  0  0  0
 20 48  1  0  0  0  0
 21 22  1  0  0  0  0
 21 49  1  0  0  0  0
 22 23  2  0  0  0  0
 22 50  1  0  0  0  0
 23 24  1  0  0  0  0
 25 51  1  0  0  0  0
 26 27  2  0  0  0  0
 26 32  1  0  0  0  0
 27 28  1  0  0  0  0
 27 52  1  0  0  0  0
 28 29  2  0  0  0  0
 28 53  1  0  0  0  0
 29 30  1  0  0  0  0
 29 31  1  0  0  0  0
 31 32  2  0  0  0  0
 31 54  1  0  0  0  0
M  END
$$$$
