
 OpenBabel01122422353D

 42 45  0  0  0  0  0  0  0  0999 V2000
    3.0759   -2.0140    1.4917 O   0  0  0  0  0  0  0  0  0  0  0  0
    3.3081   -1.0342    0.7905 C   0  0  0  0  0  0  0  0  0  0  0  0
    2.9565   -0.9515   -0.5383 N   0  0  0  0  0  0  0  0  0  0  0  0
    2.2557   -2.0353   -1.1918 C   0  0  0  0  0  0  0  0  0  0  0  0
    3.1981   -3.0325   -1.7967 C   0  0  0  0  0  0  0  0  0  0  0  0
    3.6425   -4.1429   -1.0799 C   0  0  0  0  0  0  0  0  0  0  0  0
    4.5020   -5.0608   -1.6828 C   0  0  0  0  0  0  0  0  0  0  0  0
    4.9173   -4.8511   -2.9976 C   0  0  0  0  0  0  0  0  0  0  0  0
    5.7918   -5.7932   -3.7283 C   0  0  0  0  0  0  0  0  0  0  0  0
    5.7238   -5.8948   -5.1260 C   0  0  0  0  0  0  0  0  0  0  0  0
    6.5312   -6.8067   -5.7876 C   0  0  0  0  0  0  0  0  0  0  0  0
    7.4057   -7.6223   -5.1659 N   0  0  0  0  0  0  0  0  0  0  0  0
    7.4807   -7.5091   -3.8254 C   0  0  0  0  0  0  0  0  0  0  0  0
    6.7132   -6.6266   -3.0778 C   0  0  0  0  0  0  0  0  0  0  0  0
    4.5046   -3.7636   -3.7008 N   0  0  0  0  0  0  0  0  0  0  0  0
    3.6710   -2.8888   -3.0914 C   0  0  0  0  0  0  0  0  0  0  0  0
    3.9976    0.1341    1.3802 C   0  0  0  0  0  0  0  0  0  0  0  0
    4.7938   -0.0628    2.4951 C   0  0  0  0  0  0  0  0  0  0  0  0
    5.3850    0.9404    3.1901 N   0  0  0  0  0  0  0  0  0  0  0  0
    5.1714    2.2143    2.7959 C   0  0  0  0  0  0  0  0  0  0  0  0
    5.6861    3.2900    3.5253 C   0  0  0  0  0  0  0  0  0  0  0  0
    6.3949    3.0591    4.6422 F   0  0  0  0  0  0  0  0  0  0  0  0
    5.4696    4.6195    3.1596 C   0  0  0  0  0  0  0  0  0  0  0  0
    4.7414    4.9021    2.0123 C   0  0  0  0  0  0  0  0  0  0  0  0
    4.2196    3.8500    1.2675 C   0  0  0  0  0  0  0  0  0  0  0  0
    3.5148    4.1388    0.1625 F   0  0  0  0  0  0  0  0  0  0  0  0
    4.4037    2.5094    1.6493 C   0  0  0  0  0  0  0  0  0  0  0  0
    3.8154    1.4438    0.9398 C   0  0  0  0  0  0  0  0  0  0  0  0
    3.3399   -0.2186   -1.1180 H   0  0  0  0  0  0  0  0  0  0  0  0
    1.6200   -1.5944   -1.9679 H   0  0  0  0  0  0  0  0  0  0  0  0
    1.5855   -2.5300   -0.4784 H   0  0  0  0  0  0  0  0  0  0  0  0
    3.3160   -4.3042   -0.0537 H   0  0  0  0  0  0  0  0  0  0  0  0
    4.8116   -5.9367   -1.1234 H   0  0  0  0  0  0  0  0  0  0  0  0
    5.0398   -5.2732   -5.6968 H   0  0  0  0  0  0  0  0  0  0  0  0
    6.4891   -6.9072   -6.8683 H   0  0  0  0  0  0  0  0  0  0  0  0
    8.1994   -8.1677   -3.3457 H   0  0  0  0  0  0  0  0  0  0  0  0
    6.8550   -6.5938   -2.0033 H   0  0  0  0  0  0  0  0  0  0  0  0
    3.3813   -2.0419   -3.7076 H   0  0  0  0  0  0  0  0  0  0  0  0
    4.9796   -1.0602    2.8881 H   0  0  0  0  0  0  0  0  0  0  0  0
    5.8716    5.4152    3.7797 H   0  0  0  0  0  0  0  0  0  0  0  0
    4.5669    5.9274    1.7009 H   0  0  0  0  0  0  0  0  0  0  0  0
    3.1737    1.6627    0.0898 H   0  0  0  0  0  0  0  0  0  0  0  0
  1  2  2  0  0  0  0
  2  3  1  0  0  0  0
  2 17  1  0  0  0  0
  3  4  1  0  0  0  0
  3 29  1  0  0  0  0
  4  5  1  0  0  0  0
  4 30  1  0  0  0  0
  4 31  1  0  0  0  0
  5  6  2  0  0  0  0
  5 16  1  0  0  0  0
  6  7  1  0  0  0  0
  6 32  1  0  0  0  0
  7  8  2  0  0  0  0
  7 33  1  0  0  0  0
  8  9  1  0  0  0  0
  8 15  1  0  0  0  0
  9 10  2  0  0  0  0
  9 14  1  0  0  0  0
 10 11  1  0  0  0  0
 10 34  1  0  0  0  0
 11 12  2  0  0  0  0
 11 35  1  0  0  0  0
 12 13  1  0  0  0  0
 13 14  2  0  0  0  0
 13 36  1  0  0  0  0
 14 37  1  0  0  0  0
 15 16  2  0  0  0  0
 16 38  1  0  0  0  0
 17 18  2  0  0  0  0
 17 28  1  0  0  0  0
 18 19  1  0  0  0  0
 18 39  1  0  0  0  0
 19 20  2  0  0  0  0
 20 21  1  0  0  0  0
 20 27  1  0  0  0  0
 21 22  1  0  0  0  0
 21 23  2  0  0  0  0
 23 24  1  0  0  0  0
 23 40  1  0  0  0  0
 24 25  2  0  0  0  0
 24 41  1  0  0  0  0
 25 26  1  0  0  0  0
 25 27  1  0  0  0  0
 27 28  2  0  0  0  0
 28 42  1  0  0  0  0
M  END
$$$$
