
 OpenBabel01122422373D

 46 49  0  0  0  0  0  0  0  0999 V2000
    0.8837    0.0378   -0.2795 O   0  0  0  0  0  0  0  0  0  0  0  0
    2.0996    0.0633   -0.1110 C   0  0  0  0  0  0  0  0  0  0  0  0
    2.7963    1.1277    0.4239 N   0  0  0  0  0  0  0  0  0  0  0  0
    2.1030    2.2689    0.8686 C   0  0  0  0  0  0  0  0  0  0  0  0
    1.3733    2.9128   -0.0762 N   0  0  0  0  0  0  0  0  0  0  0  0
    0.7745    4.0464    0.2971 C   0  0  0  0  0  0  0  0  0  0  0  0
    0.0776    4.6553   -0.6918 O   0  0  0  0  0  0  0  0  0  0  0  0
    0.8350    4.5978    1.5511 C   0  0  0  0  0  0  0  0  0  0  0  0
    1.5752    3.9148    2.5121 C   0  0  0  0  0  0  0  0  0  0  0  0
    2.2560    2.7198    2.1999 C   0  0  0  0  0  0  0  0  0  0  0  0
    2.9993    1.9930    3.2691 C   0  0  0  0  0  0  0  0  0  0  0  0
    3.0009    0.5875    3.3671 C   0  0  0  0  0  0  0  0  0  0  0  0
    3.7175   -0.0850    4.3630 C   0  0  0  0  0  0  0  0  0  0  0  0
    4.4009    0.6361    5.3337 C   0  0  0  0  0  0  0  0  0  0  0  0
    4.3754    2.0253    5.2997 C   0  0  0  0  0  0  0  0  0  0  0  0
    3.6985    2.6921    4.2719 C   0  0  0  0  0  0  0  0  0  0  0  0
    2.9116   -1.1682   -0.3806 C   0  0  0  0  0  0  0  0  0  0  0  0
    2.3547   -2.0428   -1.2361 C   0  0  0  0  0  0  0  0  0  0  0  0
    2.9563   -3.2517   -1.5856 N   0  0  0  0  0  0  0  0  0  0  0  0
    2.2828   -4.1372   -2.4922 C   0  0  0  0  0  0  0  0  0  0  0  0
    2.9744   -4.7794   -3.5245 C   0  0  0  0  0  0  0  0  0  0  0  0
    2.2720   -5.5593   -4.4425 C   0  0  0  0  0  0  0  0  0  0  0  0
    2.9297   -6.1251   -5.4665 F   0  0  0  0  0  0  0  0  0  0  0  0
    0.9002   -5.7453   -4.3353 C   0  0  0  0  0  0  0  0  0  0  0  0
    0.2069   -5.1386   -3.2892 C   0  0  0  0  0  0  0  0  0  0  0  0
    0.8907   -4.3298   -2.3827 C   0  0  0  0  0  0  0  0  0  0  0  0
    4.2075   -3.6165   -1.0491 C   0  0  0  0  0  0  0  0  0  0  0  0
    4.8281   -4.6507   -1.2762 O   0  0  0  0  0  0  0  0  0  0  0  0
    4.7880   -2.6582   -0.0645 C   0  0  0  0  0  0  0  0  0  0  0  0
    4.1676   -1.5124    0.2477 C   0  0  0  0  0  0  0  0  0  0  0  0
    3.7046    0.9731    0.8339 H   0  0  0  0  0  0  0  0  0  0  0  0
    0.2122    4.0101   -1.4102 H   0  0  0  0  0  0  0  0  0  0  0  0
    0.3150    5.5197    1.7812 H   0  0  0  0  0  0  0  0  0  0  0  0
    1.5922    4.3190    3.5222 H   0  0  0  0  0  0  0  0  0  0  0  0
    2.4146   -0.0208    2.6829 H   0  0  0  0  0  0  0  0  0  0  0  0
    3.7169   -1.1721    4.3934 H   0  0  0  0  0  0  0  0  0  0  0  0
    4.9341    0.1176    6.1264 H   0  0  0  0  0  0  0  0  0  0  0  0
    4.8789    2.5964    6.0761 H   0  0  0  0  0  0  0  0  0  0  0  0
    3.7182    3.7805    4.2787 H   0  0  0  0  0  0  0  0  0  0  0  0
    1.4114   -1.8148   -1.7239 H   0  0  0  0  0  0  0  0  0  0  0  0
    4.0332   -4.6492   -3.6652 H   0  0  0  0  0  0  0  0  0  0  0  0
    0.3783   -6.3607   -5.0635 H   0  0  0  0  0  0  0  0  0  0  0  0
   -0.8654   -5.2896   -3.1792 H   0  0  0  0  0  0  0  0  0  0  0  0
    0.3332   -3.8812   -1.5608 H   0  0  0  0  0  0  0  0  0  0  0  0
    5.7184   -2.9642    0.4020 H   0  0  0  0  0  0  0  0  0  0  0  0
    4.6056   -0.8688    1.0031 H   0  0  0  0  0  0  0  0  0  0  0  0
  1  2  2  0  0  0  0
  2  3  1  0  0  0  0
  2 17  1  0  0  0  0
  3  4  1  0  0  0  0
  3 31  1  0  0  0  0
  4  5  2  0  0  0  0
  4 10  1  0  0  0  0
  5  6  1  0  0  0  0
  6  7  1  0  0  0  0
  6  8  2  0  0  0  0
  7 32  1  0  0  0  0
  8  9  1  0  0  0  0
  8 33  1  0  0  0  0
  9 10  2  0  0  0  0
  9 34  1  0  0  0  0
 10 11  1  0  0  0  0
 11 12  2  0  0  0  0
 11 16  1  0  0  0  0
 12 13  1  0  0  0  0
 12 35  1  0  0  0  0
 13 14  2  0  0  0  0
 13 36  1  0  0  0  0
 14 15  1  0  0  0  0
 14 37  1  0  0  0  0
 15 16  2  0  0  0  0
 15 38  1  0  0  0  0
 16 39  1  0  0  0  0
 17 18  2  0  0  0  0
 17 30  1  0  0  0  0
 18 19  1  0  0  0  0
 18 40  1  0  0  0  0
 19 20  1  0  0  0  0
 19 27  1  0  0  0  0
 20 21  2  0  0  0  0
 20 26  1  0  0  0  0
 21 22  1  0  0  0  0
 21 41  1  0  0  0  0
 22 23  1  0  0  0  0
 22 24  2  0  0  0  0
 24 25  1  0  0  0  0
 24 42  1  0  0  0  0
 25 26  2  0  0  0  0
 25 43  1  0  0  0  0
 26 44  1  0  0  0  0
 27 28  2  0  0  0  0
 27 29  1  0  0  0  0
 29 30  2  0  0  0  0
 29 45  1  0  0  0  0
 30 46  1  0  0  0  0
M  END
$$$$
