
 OpenBabel01122422373D

 52 55  0  0  0  0  0  0  0  0999 V2000
    3.3436    1.3680    2.8102 C   0  0  0  0  0  0  0  0  0  0  0  0
    2.6519    0.1826    2.2006 C   0  0  0  0  0  0  0  0  0  0  0  0
    1.4430    0.3030    1.7456 N   0  0  0  0  0  0  0  0  0  0  0  0
    0.8016   -0.8464    1.2578 C   0  0  0  0  0  0  0  0  0  0  0  0
   -0.5174   -0.7021    0.8129 C   0  0  0  0  0  0  0  0  0  0  0  0
   -1.2523   -1.8053    0.3827 C   0  0  0  0  0  0  0  0  0  0  0  0
   -0.6620   -3.0637    0.3750 C   0  0  0  0  0  0  0  0  0  0  0  0
    0.6645   -3.2186    0.7867 C   0  0  0  0  0  0  0  0  0  0  0  0
    1.4070   -2.1177    1.2438 C   0  0  0  0  0  0  0  0  0  0  0  0
    2.7470   -2.2383    1.7148 N   0  0  0  0  0  0  0  0  0  0  0  0
    3.4438   -3.5181    1.7064 C   0  0  0  0  0  0  0  0  0  0  0  0
    4.1355   -3.8091    0.3643 C   0  0  0  0  0  0  0  0  0  0  0  0
    4.7513   -5.1217    0.2935 N   0  0  0  0  0  0  0  0  0  0  0  0
    4.0317   -6.2833    0.5241 C   0  0  0  0  0  0  0  0  0  0  0  0
    2.8449   -6.3043    0.8018 O   0  0  0  0  0  0  0  0  0  0  0  0
    4.8027   -7.5477    0.4553 C   0  0  0  0  0  0  0  0  0  0  0  0
    6.1221   -7.5169    0.9483 C   0  0  0  0  0  0  0  0  0  0  0  0
    6.8672   -8.6864    1.0254 C   0  0  0  0  0  0  0  0  0  0  0  0
    8.1176   -8.6336    1.4994 F   0  0  0  0  0  0  0  0  0  0  0  0
    6.3120   -9.8960    0.6384 C   0  0  0  0  0  0  0  0  0  0  0  0
    7.0268  -11.0232    0.7355 F   0  0  0  0  0  0  0  0  0  0  0  0
    5.0094   -9.9466    0.1544 C   0  0  0  0  0  0  0  0  0  0  0  0
    4.2386   -8.7709    0.0416 C   0  0  0  0  0  0  0  0  0  0  0  0
    2.8522   -8.9670   -0.4841 C   0  0  0  0  0  0  0  0  0  0  0  0
    2.2773  -10.0144   -0.1826 O   0  0  0  0  0  0  0  0  0  0  0  0
    2.1814   -8.0429   -1.4309 C   0  0  0  0  0  0  0  0  0  0  0  0
    0.7809   -8.0344   -1.4718 C   0  0  0  0  0  0  0  0  0  0  0  0
    0.1054   -7.2185   -2.3809 C   0  0  0  0  0  0  0  0  0  0  0  0
    0.8270   -6.4089   -3.2554 C   0  0  0  0  0  0  0  0  0  0  0  0
    2.2214   -6.4089   -3.2178 C   0  0  0  0  0  0  0  0  0  0  0  0
    2.9015   -7.2342   -2.3188 C   0  0  0  0  0  0  0  0  0  0  0  0
    3.4308   -1.1221    2.1788 C   0  0  0  0  0  0  0  0  0  0  0  0
    4.5957   -1.1197    2.5603 O   0  0  0  0  0  0  0  0  0  0  0  0
    2.7126    2.2580    2.7349 H   0  0  0  0  0  0  0  0  0  0  0  0
    4.2875    1.5569    2.2929 H   0  0  0  0  0  0  0  0  0  0  0  0
    3.5406    1.1656    3.8670 H   0  0  0  0  0  0  0  0  0  0  0  0
   -0.9780    0.2826    0.8243 H   0  0  0  0  0  0  0  0  0  0  0  0
   -2.2845   -1.6823    0.0661 H   0  0  0  0  0  0  0  0  0  0  0  0
   -1.2328   -3.9334    0.0570 H   0  0  0  0  0  0  0  0  0  0  0  0
    1.0764   -4.2237    0.7526 H   0  0  0  0  0  0  0  0  0  0  0  0
    2.7482   -4.3016    2.0133 H   0  0  0  0  0  0  0  0  0  0  0  0
    4.2095   -3.5175    2.4934 H   0  0  0  0  0  0  0  0  0  0  0  0
    4.9384   -3.0781    0.2022 H   0  0  0  0  0  0  0  0  0  0  0  0
    3.4398   -3.7202   -0.4773 H   0  0  0  0  0  0  0  0  0  0  0  0
    5.6806   -5.1737   -0.1045 H   0  0  0  0  0  0  0  0  0  0  0  0
    6.5749   -6.6047    1.3265 H   0  0  0  0  0  0  0  0  0  0  0  0
    4.5958  -10.9140   -0.1231 H   0  0  0  0  0  0  0  0  0  0  0  0
    0.2082   -8.6652   -0.7917 H   0  0  0  0  0  0  0  0  0  0  0  0
   -0.9828   -7.2212   -2.4113 H   0  0  0  0  0  0  0  0  0  0  0  0
    0.3031   -5.7820   -3.9728 H   0  0  0  0  0  0  0  0  0  0  0  0
    2.7806   -5.7733   -3.8996 H   0  0  0  0  0  0  0  0  0  0  0  0
    3.9850   -7.2362   -2.3326 H   0  0  0  0  0  0  0  0  0  0  0  0
  1  2  1  0  0  0  0
  1 34  1  0  0  0  0
  1 35  1  0  0  0  0
  1 36  1  0  0  0  0
  2  3  2  0  0  0  0
  2 32  1  0  0  0  0
  3  4  1  0  0  0  0
  4  5  2  0  0  0  0
  4  9  1  0  0  0  0
  5  6  1  0  0  0  0
  5 37  1  0  0  0  0
  6  7  2  0  0  0  0
  6 38  1  0  0  0  0
  7  8  1  0  0  0  0
  7 39  1  0  0  0  0
  8  9  2  0  0  0  0
  8 40  1  0  0  0  0
  9 10  1  0  0  0  0
 10 11  1  0  0  0  0
 10 32  1  0  0  0  0
 11 12  1  0  0  0  0
 11 41  1  0  0  0  0
 11 42  1  0  0  0  0
 12 13  1  0  0  0  0
 12 43  1  0  0  0  0
 12 44  1  0  0  0  0
 13 14  1  0  0  0  0
 13 45  1  0  0  0  0
 14 15  2  0  0  0  0
 14 16  1  0  0  0  0
 16 17  2  0  0  0  0
 16 23  1  0  0  0  0
 17 18  1  0  0  0  0
 17 46  1  0  0  0  0
 18 19  1  0  0  0  0
 18 20  2  0  0  0  0
 20 21  1  0  0  0  0
 20 22  1  0  0  0  0
 22 23  2  0  0  0  0
 22 47  1  0  0  0  0
 23 24  1  0  0  0  0
 24 25  2  0  0  0  0
 24 26  1  0  0  0  0
 26 27  2  0  0  0  0
 26 31  1  0  0  0  0
 27 28  1  0  0  0  0
 27 48  1  0  0  0  0
 28 29  2  0  0  0  0
 28 49  1  0  0  0  0
 29 30  1  0  0  0  0
 29 50  1  0  0  0  0
 30 31  2  0  0  0  0
 30 51  1  0  0  0  0
 31 52  1  0  0  0  0
 32 33  2  0  0  0  0
M  END
$$$$
