
 OpenBabel01122422373D

 42 45  0  0  0  0  0  0  0  0999 V2000
    2.1571    0.2905    1.2900 O   0  0  0  0  0  0  0  0  0  0  0  0
    2.2601    0.0845    0.0874 C   0  0  0  0  0  0  0  0  0  0  0  0
    1.5990    1.0110   -0.8864 C   0  0  0  0  0  0  0  0  0  0  0  0
    2.1339    1.2340   -2.1650 C   0  0  0  0  0  0  0  0  0  0  0  0
    1.4159    1.9655   -3.1113 C   0  0  0  0  0  0  0  0  0  0  0  0
    0.1843    2.5203   -2.7715 C   0  0  0  0  0  0  0  0  0  0  0  0
   -0.3223    2.3589   -1.4811 C   0  0  0  0  0  0  0  0  0  0  0  0
    0.3828    1.6064   -0.5369 C   0  0  0  0  0  0  0  0  0  0  0  0
    2.9860   -1.1127   -0.4158 C   0  0  0  0  0  0  0  0  0  0  0  0
    2.5236   -1.7579   -1.5716 C   0  0  0  0  0  0  0  0  0  0  0  0
    3.2507   -2.7782   -2.1869 C   0  0  0  0  0  0  0  0  0  0  0  0
    2.8784   -3.3422   -3.4326 N   0  0  0  0  0  0  0  0  0  0  0  0
    1.8179   -2.9263   -4.2262 C   0  0  0  0  0  0  0  0  0  0  0  0
    1.0563   -1.9984   -3.9679 O   0  0  0  0  0  0  0  0  0  0  0  0
    1.5661   -3.6419   -5.5059 C   0  0  0  0  0  0  0  0  0  0  0  0
    2.4200   -4.6186   -6.0197 C   0  0  0  0  0  0  0  0  0  0  0  0
    3.5426   -4.9861   -5.3841 F   0  0  0  0  0  0  0  0  0  0  0  0
    2.0764   -5.2030   -7.2191 C   0  0  0  0  0  0  0  0  0  0  0  0
    0.9203   -4.8425   -7.9100 C   0  0  0  0  0  0  0  0  0  0  0  0
    0.0533   -3.8870   -7.4458 C   0  0  0  0  0  0  0  0  0  0  0  0
    0.3890   -3.2841   -6.2289 C   0  0  0  0  0  0  0  0  0  0  0  0
    0.8546   -5.6037   -9.0694 N   0  0  0  0  0  0  0  0  0  0  0  0
    1.9743   -6.4477   -9.1167 C   0  0  0  0  0  0  0  0  0  0  0  0
    2.2381   -7.2541   -9.9897 O   0  0  0  0  0  0  0  0  0  0  0  0
    2.7220   -6.1895   -7.9616 N   0  0  0  0  0  0  0  0  0  0  0  0
    4.4081   -3.2392   -1.5527 C   0  0  0  0  0  0  0  0  0  0  0  0
    4.8292   -2.6650   -0.3437 C   0  0  0  0  0  0  0  0  0  0  0  0
    4.1241   -1.5978    0.2147 C   0  0  0  0  0  0  0  0  0  0  0  0
    4.5940   -1.0395    1.3375 F   0  0  0  0  0  0  0  0  0  0  0  0
    3.0913    0.8099   -2.4561 H   0  0  0  0  0  0  0  0  0  0  0  0
    1.8097    2.0836   -4.1177 H   0  0  0  0  0  0  0  0  0  0  0  0
   -0.3816    3.0770   -3.5144 H   0  0  0  0  0  0  0  0  0  0  0  0
   -1.2787    2.8031   -1.2167 H   0  0  0  0  0  0  0  0  0  0  0  0
   -0.0331    1.4608    0.4575 H   0  0  0  0  0  0  0  0  0  0  0  0
    1.5835   -1.4197   -1.9920 H   0  0  0  0  0  0  0  0  0  0  0  0
    3.4770   -4.0810   -3.7891 H   0  0  0  0  0  0  0  0  0  0  0  0
   -0.8447   -3.6049   -7.9825 H   0  0  0  0  0  0  0  0  0  0  0  0
   -0.2783   -2.5181   -5.8300 H   0  0  0  0  0  0  0  0  0  0  0  0
    0.1390   -5.5804   -9.7784 H   0  0  0  0  0  0  0  0  0  0  0  0
    3.5853   -6.6587   -7.7364 H   0  0  0  0  0  0  0  0  0  0  0  0
    5.0020   -4.0413   -1.9840 H   0  0  0  0  0  0  0  0  0  0  0  0
    5.7223   -3.0267    0.1582 H   0  0  0  0  0  0  0  0  0  0  0  0
  1  2  2  0  0  0  0
  2  3  1  0  0  0  0
  2  9  1  0  0  0  0
  3  4  2  0  0  0  0
  3  8  1  0  0  0  0
  4  5  1  0  0  0  0
  4 30  1  0  0  0  0
  5  6  2  0  0  0  0
  5 31  1  0  0  0  0
  6  7  1  0  0  0  0
  6 32  1  0  0  0  0
  7  8  2  0  0  0  0
  7 33  1  0  0  0  0
  8 34  1  0  0  0  0
  9 10  2  0  0  0  0
  9 28  1  0  0  0  0
 10 11  1  0  0  0  0
 10 35  1  0  0  0  0
 11 12  1  0  0  0  0
 11 26  2  0  0  0  0
 12 13  1  0  0  0  0
 12 36  1  0  0  0  0
 13 14  2  0  0  0  0
 13 15  1  0  0  0  0
 15 16  2  0  0  0  0
 15 21  1  0  0  0  0
 16 17  1  0  0  0  0
 16 18  1  0  0  0  0
 18 19  2  0  0  0  0
 18 25  1  0  0  0  0
 19 20  1  0  0  0  0
 19 22  1  0  0  0  0
 20 21  2  0  0  0  0
 20 37  1  0  0  0  0
 21 38  1  0  0  0  0
 22 23  1  0  0  0  0
 22 39  1  0  0  0  0
 23 24  2  0  0  0  0
 23 25  1  0  0  0  0
 25 40  1  0  0  0  0
 26 27  1  0  0  0  0
 26 41  1  0  0  0  0
 27 28  2  0  0  0  0
 27 42  1  0  0  0  0
 28 29  1  0  0  0  0
M  END
$$$$
