
 OpenBabel01122422373D

 48 51  0  0  0  0  0  0  0  0999 V2000
    2.7719   -0.8883    0.6498 O   0  0  0  0  0  0  0  0  0  0  0  0
    2.2032    0.0864    0.1595 C   0  0  0  0  0  0  0  0  0  0  0  0
    2.9364    1.2064   -0.1882 N   0  0  0  0  0  0  0  0  0  0  0  0
    2.4728    2.3201   -0.9192 C   0  0  0  0  0  0  0  0  0  0  0  0
    1.8465    2.0940   -2.1555 C   0  0  0  0  0  0  0  0  0  0  0  0
    1.1095    3.1094   -2.7641 C   0  0  0  0  0  0  0  0  0  0  0  0
    0.9773    4.3401   -2.1318 C   0  0  0  0  0  0  0  0  0  0  0  0
    1.6456    4.5830   -0.9313 C   0  0  0  0  0  0  0  0  0  0  0  0
    2.4603    3.6013   -0.3438 C   0  0  0  0  0  0  0  0  0  0  0  0
    3.1325    3.7997    0.8409 O   0  0  0  0  0  0  0  0  0  0  0  0
    3.3829    5.1831    1.1381 C   0  0  0  0  0  0  0  0  0  0  0  0
    4.5918    5.3940    2.0013 C   0  0  0  0  0  0  0  0  0  0  0  0
    5.2581    4.3745    2.6729 C   0  0  0  0  0  0  0  0  0  0  0  0
    6.4103    4.6709    3.3971 C   0  0  0  0  0  0  0  0  0  0  0  0
    6.8342    5.9861    3.4444 C   0  0  0  0  0  0  0  0  0  0  0  0
    6.1979    7.0123    2.8455 N   0  0  0  0  0  0  0  0  0  0  0  0
    5.0889    6.6906    2.1438 C   0  0  0  0  0  0  0  0  0  0  0  0
    0.7124    0.0939    0.0061 C   0  0  0  0  0  0  0  0  0  0  0  0
    0.0209   -1.0481   -0.0641 C   0  0  0  0  0  0  0  0  0  0  0  0
   -1.4455   -1.0622   -0.3373 C   0  0  0  0  0  0  0  0  0  0  0  0
   -1.9974   -2.1577   -0.3627 O   0  0  0  0  0  0  0  0  0  0  0  0
   -2.0223    0.1838   -0.6232 N   0  0  0  0  0  0  0  0  0  0  0  0
   -3.3993    0.3949   -0.9471 C   0  0  0  0  0  0  0  0  0  0  0  0
   -4.4046   -0.4993   -0.5620 C   0  0  0  0  0  0  0  0  0  0  0  0
   -5.7506   -0.2179   -0.8224 C   0  0  0  0  0  0  0  0  0  0  0  0
   -6.1107    0.9420   -1.5036 C   0  0  0  0  0  0  0  0  0  0  0  0
   -5.1267    1.8323   -1.9186 C   0  0  0  0  0  0  0  0  0  0  0  0
   -3.7851    1.5666   -1.6306 C   0  0  0  0  0  0  0  0  0  0  0  0
   -1.3672    1.3666   -0.3812 N   0  0  0  0  0  0  0  0  0  0  0  0
   -0.1340    1.2914   -0.0180 C   0  0  0  0  0  0  0  0  0  0  0  0
    3.8690    1.2545    0.2119 H   0  0  0  0  0  0  0  0  0  0  0  0
    1.8879    1.1153   -2.6242 H   0  0  0  0  0  0  0  0  0  0  0  0
    0.5940    2.9164   -3.7003 H   0  0  0  0  0  0  0  0  0  0  0  0
    0.3370    5.1066   -2.5615 H   0  0  0  0  0  0  0  0  0  0  0  0
    1.4656    5.5411   -0.4540 H   0  0  0  0  0  0  0  0  0  0  0  0
    2.5030    5.6083    1.6378 H   0  0  0  0  0  0  0  0  0  0  0  0
    3.5908    5.7308    0.2100 H   0  0  0  0  0  0  0  0  0  0  0  0
    4.9039    3.3464    2.6233 H   0  0  0  0  0  0  0  0  0  0  0  0
    6.9664    3.8907    3.9044 H   0  0  0  0  0  0  0  0  0  0  0  0
    7.7458    6.2620    3.9730 H   0  0  0  0  0  0  0  0  0  0  0  0
    4.6017    7.5356    1.6616 H   0  0  0  0  0  0  0  0  0  0  0  0
    0.4898   -2.0226    0.0181 H   0  0  0  0  0  0  0  0  0  0  0  0
   -4.1712   -1.3958    0.0024 H   0  0  0  0  0  0  0  0  0  0  0  0
   -6.5168   -0.9048   -0.4739 H   0  0  0  0  0  0  0  0  0  0  0  0
   -7.1577    1.1537   -1.7029 H   0  0  0  0  0  0  0  0  0  0  0  0
   -5.3994    2.7371   -2.4560 H   0  0  0  0  0  0  0  0  0  0  0  0
   -3.0342    2.2795   -1.9635 H   0  0  0  0  0  0  0  0  0  0  0  0
    0.3236    2.2251    0.3230 H   0  0  0  0  0  0  0  0  0  0  0  0
  1  2  2  0  0  0  0
  2  3  1  0  0  0  0
  2 18  1  0  0  0  0
  3  4  1  0  0  0  0
  3 31  1  0  0  0  0
  4  5  2  0  0  0  0
  4  9  1  0  0  0  0
  5  6  1  0  0  0  0
  5 32  1  0  0  0  0
  6  7  2  0  0  0  0
  6 33  1  0  0  0  0
  7  8  1  0  0  0  0
  7 34  1  0  0  0  0
  8  9  2  0  0  0  0
  8 35  1  0  0  0  0
  9 10  1  0  0  0  0
 10 11  1  0  0  0  0
 11 12  1  0  0  0  0
 11 36  1  0  0  0  0
 11 37  1  0  0  0  0
 12 13  2  0  0  0  0
 12 17  1  0  0  0  0
 13 14  1  0  0  0  0
 13 38  1  0  0  0  0
 14 15  2  0  0  0  0
 14 39  1  0  0  0  0
 15 16  1  0  0  0  0
 15 40  1  0  0  0  0
 16 17  2  0  0  0  0
 17 41  1  0  0  0  0
 18 19  2  0  0  0  0
 18 30  1  0  0  0  0
 19 20  1  0  0  0  0
 19 42  1  0  0  0  0
 20 21  2  0  0  0  0
 20 22  1  0  0  0  0
 22 23  1  0  0  0  0
 22 29  1  0  0  0  0
 23 24  2  0  0  0  0
 23 28  1  0  0  0  0
 24 25  1  0  0  0  0
 24 43  1  0  0  0  0
 25 26  2  0  0  0  0
 25 44  1  0  0  0  0
 26 27  1  0  0  0  0
 26 45  1  0  0  0  0
 27 28  2  0  0  0  0
 27 46  1  0  0  0  0
 28 47  1  0  0  0  0
 29 30  2  0  0  0  0
 30 48  1  0  0  0  0
M  END
$$$$
