
 OpenBabel01122422373D

 45 48  0  0  0  0  0  0  0  0999 V2000
    1.0031   -0.3675    0.1295 O   0  0  0  0  0  0  0  0  0  0  0  0
    2.1885   -0.0735   -0.0099 C   0  0  0  0  0  0  0  0  0  0  0  0
    2.8244    0.9937    0.5961 N   0  0  0  0  0  0  0  0  0  0  0  0
    2.2518    1.8199    1.6023 C   0  0  0  0  0  0  0  0  0  0  0  0
    1.0847    1.4499    2.2755 C   0  0  0  0  0  0  0  0  0  0  0  0
    0.5143    2.2838    3.2255 C   0  0  0  0  0  0  0  0  0  0  0  0
    1.1224    3.4886    3.5458 C   0  0  0  0  0  0  0  0  0  0  0  0
    2.3279    3.8684    2.9426 C   0  0  0  0  0  0  0  0  0  0  0  0
    3.0115    5.0640    3.3005 N   0  0  0  0  0  0  0  0  0  0  0  0
    2.6486    5.9290    4.3234 C   0  0  0  0  0  0  0  0  0  0  0  0
    1.6704    5.7980    5.0568 O   0  0  0  0  0  0  0  0  0  0  0  0
    3.4726    7.1478    4.5518 C   0  0  0  0  0  0  0  0  0  0  0  0
    3.0764    8.0033    5.5931 C   0  0  0  0  0  0  0  0  0  0  0  0
    3.6285    9.2828    5.7242 C   0  0  0  0  0  0  0  0  0  0  0  0
    3.2362   10.1600    6.7336 C   0  0  0  0  0  0  0  0  0  0  0  0
    3.5089   11.4805    6.7275 N   0  0  0  0  0  0  0  0  0  0  0  0
    4.2526   11.9347    5.6988 C   0  0  0  0  0  0  0  0  0  0  0  0
    4.8546   11.1105    4.7575 C   0  0  0  0  0  0  0  0  0  0  0  0
    4.5518    9.7415    4.7712 C   0  0  0  0  0  0  0  0  0  0  0  0
    5.0813    8.8184    3.8487 C   0  0  0  0  0  0  0  0  0  0  0  0
    4.5426    7.5315    3.7502 C   0  0  0  0  0  0  0  0  0  0  0  0
    5.0481    6.6940    2.8316 F   0  0  0  0  0  0  0  0  0  0  0  0
    2.8810    3.0300    1.9563 C   0  0  0  0  0  0  0  0  0  0  0  0
    3.0183   -0.8925   -0.9578 C   0  0  0  0  0  0  0  0  0  0  0  0
    2.3364   -1.5895   -1.8896 C   0  0  0  0  0  0  0  0  0  0  0  0
    2.9749   -2.4705   -2.7242 N   0  0  0  0  0  0  0  0  0  0  0  0
    4.3243   -2.7450   -2.6526 C   0  0  0  0  0  0  0  0  0  0  0  0
    4.8723   -3.5720   -3.3769 O   0  0  0  0  0  0  0  0  0  0  0  0
    5.0817   -1.9832   -1.6320 C   0  0  0  0  0  0  0  0  0  0  0  0
    4.4468   -1.1032   -0.8298 C   0  0  0  0  0  0  0  0  0  0  0  0
    3.7309    1.2753    0.2402 H   0  0  0  0  0  0  0  0  0  0  0  0
    0.5854    0.5035    2.0954 H   0  0  0  0  0  0  0  0  0  0  0  0
   -0.4074    1.9915    3.7226 H   0  0  0  0  0  0  0  0  0  0  0  0
    0.6168    4.1021    4.2798 H   0  0  0  0  0  0  0  0  0  0  0  0
    3.8574    5.2762    2.7823 H   0  0  0  0  0  0  0  0  0  0  0  0
    2.2550    7.7138    6.2496 H   0  0  0  0  0  0  0  0  0  0  0  0
    2.6657    9.8134    7.5921 H   0  0  0  0  0  0  0  0  0  0  0  0
    4.3437   13.0159    5.6430 H   0  0  0  0  0  0  0  0  0  0  0  0
    5.4827   11.5467    3.9883 H   0  0  0  0  0  0  0  0  0  0  0  0
    5.8856    9.1036    3.1756 H   0  0  0  0  0  0  0  0  0  0  0  0
    3.8013    3.3251    1.4589 H   0  0  0  0  0  0  0  0  0  0  0  0
    1.2586   -1.5213   -2.0120 H   0  0  0  0  0  0  0  0  0  0  0  0
    2.4465   -3.0053   -3.3996 H   0  0  0  0  0  0  0  0  0  0  0  0
    6.1397   -2.1985   -1.5578 H   0  0  0  0  0  0  0  0  0  0  0  0
    5.0042   -0.5834   -0.0632 H   0  0  0  0  0  0  0  0  0  0  0  0
  1  2  2  0  0  0  0
  2  3  1  0  0  0  0
  2 24  1  0  0  0  0
  3  4  1  0  0  0  0
  3 31  1  0  0  0  0
  4  5  2  0  0  0  0
  4 23  1  0  0  0  0
  5  6  1  0  0  0  0
  5 32  1  0  0  0  0
  6  7  2  0  0  0  0
  6 33  1  0  0  0  0
  7  8  1  0  0  0  0
  7 34  1  0  0  0  0
  8  9  1  0  0  0  0
  8 23  2  0  0  0  0
  9 10  1  0  0  0  0
  9 35  1  0  0  0  0
 10 11  2  0  0  0  0
 10 12  1  0  0  0  0
 12 13  2  0  0  0  0
 12 21  1  0  0  0  0
 13 14  1  0  0  0  0
 13 36  1  0  0  0  0
 14 15  2  0  0  0  0
 14 19  1  0  0  0  0
 15 16  1  0  0  0  0
 15 37  1  0  0  0  0
 16 17  2  0  0  0  0
 17 18  1  0  0  0  0
 17 38  1  0  0  0  0
 18 19  2  0  0  0  0
 18 39  1  0  0  0  0
 19 20  1  0  0  0  0
 20 21  2  0  0  0  0
 20 40  1  0  0  0  0
 21 22  1  0  0  0  0
 23 41  1  0  0  0  0
 24 25  2  0  0  0  0
 24 30  1  0  0  0  0
 25 26  1  0  0  0  0
 25 42  1  0  0  0  0
 26 27  1  0  0  0  0
 26 43  1  0  0  0  0
 27 28  2  0  0  0  0
 27 29  1  0  0  0  0
 29 30  2  0  0  0  0
 29 44  1  0  0  0  0
 30 45  1  0  0  0  0
M  END
$$$$
