
 OpenBabel01122422373D

 53 56  0  0  0  0  0  0  0  0999 V2000
   10.4583    0.3185   -0.0112 C   0  0  0  0  0  0  0  0  0  0  0  0
    9.0155    0.1775    0.0360 N   0  0  0  0  0  0  0  0  0  0  0  0
    8.1173    1.2142   -0.0311 C   0  0  0  0  0  0  0  0  0  0  0  0
    6.8343    0.7521    0.2296 C   0  0  0  0  0  0  0  0  0  0  0  0
    5.5496    1.5168    0.3882 C   0  0  0  0  0  0  0  0  0  0  0  0
    4.5470    0.8791    0.7254 O   0  0  0  0  0  0  0  0  0  0  0  0
    5.3979    2.9220    0.1367 N   0  0  0  0  0  0  0  0  0  0  0  0
    4.1032    3.5580    0.4979 C   0  0  0  0  0  0  0  0  0  0  0  0
    2.6703    3.1386    0.1118 C   0  0  0  0  0  0  0  0  0  0  0  0
    2.4757    1.8937   -0.4001 N   0  0  0  0  0  0  0  0  0  0  0  0
    1.7224    3.8994    0.3119 O   0  0  0  0  0  0  0  0  0  0  0  0
    6.5454    3.8640    0.0635 C   0  0  0  0  0  0  0  0  0  0  0  0
    6.2616    5.3759    0.1037 C   0  0  0  0  0  0  0  0  0  0  0  0
    6.3317    6.1047    1.2983 C   0  0  0  0  0  0  0  0  0  0  0  0
    6.0447    7.4885    1.3315 C   0  0  0  0  0  0  0  0  0  0  0  0
    5.6750    8.2190    0.1843 C   0  0  0  0  0  0  0  0  0  0  0  0
    5.4194    9.6984    0.2404 C   0  0  0  0  0  0  0  0  0  0  0  0
    6.0577   10.5085    1.2008 C   0  0  0  0  0  0  0  0  0  0  0  0
    5.8116   11.8956    1.2959 C   0  0  0  0  0  0  0  0  0  0  0  0
    4.9289   12.5111    0.4144 C   0  0  0  0  0  0  0  0  0  0  0  0
    4.3036   11.7446   -0.5606 C   0  0  0  0  0  0  0  0  0  0  0  0
    4.5435   10.3567   -0.6445 C   0  0  0  0  0  0  0  0  0  0  0  0
    5.5687    7.4665   -0.9993 C   0  0  0  0  0  0  0  0  0  0  0  0
    5.8611    6.0818   -1.0427 C   0  0  0  0  0  0  0  0  0  0  0  0
    6.9994   -0.7192    0.3163 C   0  0  0  0  0  0  0  0  0  0  0  0
    6.1289   -1.8262    0.4978 C   0  0  0  0  0  0  0  0  0  0  0  0
    6.6409   -3.1374    0.5036 C   0  0  0  0  0  0  0  0  0  0  0  0
    5.8043   -4.1718    0.6489 F   0  0  0  0  0  0  0  0  0  0  0  0
    7.9964   -3.4000    0.3546 C   0  0  0  0  0  0  0  0  0  0  0  0
    8.8818   -2.3382    0.1955 C   0  0  0  0  0  0  0  0  0  0  0  0
    8.3645   -1.0223    0.1739 C   0  0  0  0  0  0  0  0  0  0  0  0
   10.7235    1.3771    0.0347 H   0  0  0  0  0  0  0  0  0  0  0  0
   10.8234   -0.1262   -0.9397 H   0  0  0  0  0  0  0  0  0  0  0  0
   10.8852   -0.1984    0.8544 H   0  0  0  0  0  0  0  0  0  0  0  0
    8.5054    2.1999   -0.2219 H   0  0  0  0  0  0  0  0  0  0  0  0
    4.1068    4.5059   -0.0433 H   0  0  0  0  0  0  0  0  0  0  0  0
    4.1239    3.7769    1.5708 H   0  0  0  0  0  0  0  0  0  0  0  0
    3.1215    1.6934   -1.1561 H   0  0  0  0  0  0  0  0  0  0  0  0
    2.7901    1.1978    0.2824 H   0  0  0  0  0  0  0  0  0  0  0  0
    7.0663    3.6543   -0.8764 H   0  0  0  0  0  0  0  0  0  0  0  0
    7.2274    3.6316    0.8904 H   0  0  0  0  0  0  0  0  0  0  0  0
    6.5975    5.6143    2.2329 H   0  0  0  0  0  0  0  0  0  0  0  0
    6.1000    7.9894    2.2969 H   0  0  0  0  0  0  0  0  0  0  0  0
    6.7723   10.0921    1.8984 H   0  0  0  0  0  0  0  0  0  0  0  0
    6.3112   12.4806    2.0595 H   0  0  0  0  0  0  0  0  0  0  0  0
    4.7358   13.5770    0.4908 H   0  0  0  0  0  0  0  0  0  0  0  0
    3.6188   12.2209   -1.2566 H   0  0  0  0  0  0  0  0  0  0  0  0
    4.0098    9.8091   -1.4151 H   0  0  0  0  0  0  0  0  0  0  0  0
    5.2573    7.9450   -1.9261 H   0  0  0  0  0  0  0  0  0  0  0  0
    5.7377    5.5558   -1.9877 H   0  0  0  0  0  0  0  0  0  0  0  0
    5.0586   -1.6889    0.6184 H   0  0  0  0  0  0  0  0  0  0  0  0
    8.3538   -4.4259    0.3621 H   0  0  0  0  0  0  0  0  0  0  0  0
    9.9449   -2.5322    0.0794 H   0  0  0  0  0  0  0  0  0  0  0  0
  1  2  1  0  0  0  0
  1 32  1  0  0  0  0
  1 33  1  0  0  0  0
  1 34  1  0  0  0  0
  2  3  1  0  0  0  0
  2 31  1  0  0  0  0
  3  4  2  0  0  0  0
  3 35  1  0  0  0  0
  4  5  1  0  0  0  0
  4 25  1  0  0  0  0
  5  6  2  0  0  0  0
  5  7  1  0  0  0  0
  7  8  1  0  0  0  0
  7 12  1  0  0  0  0
  8  9  1  0  0  0  0
  8 36  1  0  0  0  0
  8 37  1  0  0  0  0
  9 10  1  0  0  0  0
  9 11  2  0  0  0  0
 10 38  1  0  0  0  0
 10 39  1  0  0  0  0
 12 13  1  0  0  0  0
 12 40  1  0  0  0  0
 12 41  1  0  0  0  0
 13 14  2  0  0  0  0
 13 24  1  0  0  0  0
 14 15  1  0  0  0  0
 14 42  1  0  0  0  0
 15 16  2  0  0  0  0
 15 43  1  0  0  0  0
 16 17  1  0  0  0  0
 16 23  1  0  0  0  0
 17 18  2  0  0  0  0
 17 22  1  0  0  0  0
 18 19  1  0  0  0  0
 18 44  1  0  0  0  0
 19 20  2  0  0  0  0
 19 45  1  0  0  0  0
 20 21  1  0  0  0  0
 20 46  1  0  0  0  0
 21 22  2  0  0  0  0
 21 47  1  0  0  0  0
 22 48  1  0  0  0  0
 23 24  2  0  0  0  0
 23 49  1  0  0  0  0
 24 50  1  0  0  0  0
 25 26  2  0  0  0  0
 25 31  1  0  0  0  0
 26 27  1  0  0  0  0
 26 51  1  0  0  0  0
 27 28  1  0  0  0  0
 27 29  2  0  0  0  0
 29 30  1  0  0  0  0
 29 52  1  0  0  0  0
 30 31  2  0  0  0  0
 30 53  1  0  0  0  0
M  END
$$$$
