
 OpenBabel01122422353D

 47 50  0  0  0  0  0  0  0  0999 V2000
    1.0807   -0.4379   -0.6416 O   0  0  0  0  0  0  0  0  0  0  0  0
    2.2209   -0.2651   -0.2176 C   0  0  0  0  0  0  0  0  0  0  0  0
    2.8488   -1.0822    0.7069 N   0  0  0  0  0  0  0  0  0  0  0  0
    2.1160   -2.1616    1.2220 C   0  0  0  0  0  0  0  0  0  0  0  0
    1.9098   -3.2860    0.4243 C   0  0  0  0  0  0  0  0  0  0  0  0
    1.1514   -4.3325    0.9426 C   0  0  0  0  0  0  0  0  0  0  0  0
    0.5876   -4.2018    2.2064 C   0  0  0  0  0  0  0  0  0  0  0  0
    0.8669   -3.0518    2.9455 C   0  0  0  0  0  0  0  0  0  0  0  0
    0.2565   -2.8695    4.3187 C   0  0  0  0  0  0  0  0  0  0  0  0
   -1.0962   -2.1830    4.3572 C   0  0  0  0  0  0  0  0  0  0  0  0
   -1.2544   -0.8780    3.8912 C   0  0  0  0  0  0  0  0  0  0  0  0
   -2.4797   -0.2331    4.0670 C   0  0  0  0  0  0  0  0  0  0  0  0
   -3.5182   -0.9035    4.6994 C   0  0  0  0  0  0  0  0  0  0  0  0
   -3.2917   -2.2029    5.1185 C   0  0  0  0  0  0  0  0  0  0  0  0
   -2.1140   -2.8527    4.9685 N   0  0  0  0  0  0  0  0  0  0  0  0
    1.6735   -2.0546    2.4823 N   0  0  0  0  0  0  0  0  0  0  0  0
    2.9872    0.9536   -0.6469 C   0  0  0  0  0  0  0  0  0  0  0  0
    4.3272    0.9401   -0.7758 C   0  0  0  0  0  0  0  0  0  0  0  0
    5.0390    2.0480   -1.2439 N   0  0  0  0  0  0  0  0  0  0  0  0
    6.4566    1.9905   -1.4218 C   0  0  0  0  0  0  0  0  0  0  0  0
    7.2763    3.0056   -0.9044 C   0  0  0  0  0  0  0  0  0  0  0  0
    8.6532    2.9860   -1.1310 C   0  0  0  0  0  0  0  0  0  0  0  0
    9.2041    1.9685   -1.8993 C   0  0  0  0  0  0  0  0  0  0  0  0
   10.5189    1.9725   -2.1534 F   0  0  0  0  0  0  0  0  0  0  0  0
    8.4091    0.9528   -2.4190 C   0  0  0  0  0  0  0  0  0  0  0  0
    7.0357    0.9492   -2.1619 C   0  0  0  0  0  0  0  0  0  0  0  0
    4.3841    3.2320   -1.6444 C   0  0  0  0  0  0  0  0  0  0  0  0
    4.9160    4.2400   -2.1068 O   0  0  0  0  0  0  0  0  0  0  0  0
    2.9009    3.2105   -1.5507 C   0  0  0  0  0  0  0  0  0  0  0  0
    2.2646    2.1345   -1.0736 C   0  0  0  0  0  0  0  0  0  0  0  0
    3.3425   -0.5703    1.4251 H   0  0  0  0  0  0  0  0  0  0  0  0
    2.3375   -3.3602   -0.5684 H   0  0  0  0  0  0  0  0  0  0  0  0
    0.9824   -5.2331    0.3583 H   0  0  0  0  0  0  0  0  0  0  0  0
   -0.0468   -4.9833    2.6100 H   0  0  0  0  0  0  0  0  0  0  0  0
    0.9420   -2.2914    4.9430 H   0  0  0  0  0  0  0  0  0  0  0  0
    0.1685   -3.8516    4.8013 H   0  0  0  0  0  0  0  0  0  0  0  0
   -0.4304   -0.3558    3.4152 H   0  0  0  0  0  0  0  0  0  0  0  0
   -2.6149    0.7883    3.7242 H   0  0  0  0  0  0  0  0  0  0  0  0
   -4.4779   -0.4246    4.8654 H   0  0  0  0  0  0  0  0  0  0  0  0
   -4.0737   -2.7718    5.6163 H   0  0  0  0  0  0  0  0  0  0  0  0
    4.9228    0.0713   -0.5071 H   0  0  0  0  0  0  0  0  0  0  0  0
    6.8477    3.8154   -0.3182 H   0  0  0  0  0  0  0  0  0  0  0  0
    9.2908    3.7668   -0.7295 H   0  0  0  0  0  0  0  0  0  0  0  0
    8.8603    0.1860   -3.0407 H   0  0  0  0  0  0  0  0  0  0  0  0
    6.4175    0.1764   -2.6112 H   0  0  0  0  0  0  0  0  0  0  0  0
    2.3820    4.0921   -1.9110 H   0  0  0  0  0  0  0  0  0  0  0  0
    1.1791    2.1186   -1.0273 H   0  0  0  0  0  0  0  0  0  0  0  0
  1  2  2  0  0  0  0
  2  3  1  0  0  0  0
  2 17  1  0  0  0  0
  3  4  1  0  0  0  0
  3 31  1  0  0  0  0
  4  5  2  0  0  0  0
  4 16  1  0  0  0  0
  5  6  1  0  0  0  0
  5 32  1  0  0  0  0
  6  7  2  0  0  0  0
  6 33  1  0  0  0  0
  7  8  1  0  0  0  0
  7 34  1  0  0  0  0
  8  9  1  0  0  0  0
  8 16  2  0  0  0  0
  9 10  1  0  0  0  0
  9 35  1  0  0  0  0
  9 36  1  0  0  0  0
 10 11  2  0  0  0  0
 10 15  1  0  0  0  0
 11 12  1  0  0  0  0
 11 37  1  0  0  0  0
 12 13  2  0  0  0  0
 12 38  1  0  0  0  0
 13 14  1  0  0  0  0
 13 39  1  0  0  0  0
 14 15  2  0  0  0  0
 14 40  1  0  0  0  0
 17 18  2  0  0  0  0
 17 30  1  0  0  0  0
 18 19  1  0  0  0  0
 18 41  1  0  0  0  0
 19 20  1  0  0  0  0
 19 27  1  0  0  0  0
 20 21  2  0  0  0  0
 20 26  1  0  0  0  0
 21 22  1  0  0  0  0
 21 42  1  0  0  0  0
 22 23  2  0  0  0  0
 22 43  1  0  0  0  0
 23 24  1  0  0  0  0
 23 25  1  0  0  0  0
 25 26  2  0  0  0  0
 25 44  1  0  0  0  0
 26 45  1  0  0  0  0
 27 28  2  0  0  0  0
 27 29  1  0  0  0  0
 29 30  2  0  0  0  0
 29 46  1  0  0  0  0
 30 47  1  0  0  0  0
M  END
$$$$
