
 OpenBabel01122422353D

 54 57  0  0  0  0  0  0  0  0999 V2000
    2.5633   -1.9003    2.0917 C   0  0  0  0  0  0  0  0  0  0  0  0
    3.9013   -1.3953    1.5851 C   0  0  0  0  0  0  0  0  0  0  0  0
    3.9167   -1.4792    0.1547 O   0  0  0  0  0  0  0  0  0  0  0  0
    5.0634   -0.9295   -0.3785 C   0  0  0  0  0  0  0  0  0  0  0  0
    5.4547   -1.3294   -1.6416 C   0  0  0  0  0  0  0  0  0  0  0  0
    6.6232   -0.7873   -2.1789 C   0  0  0  0  0  0  0  0  0  0  0  0
    7.3309    0.1408   -1.4231 C   0  0  0  0  0  0  0  0  0  0  0  0
    8.5571    0.7006   -1.9031 N   0  0  0  0  0  0  0  0  0  0  0  0
    9.0631    0.3511   -3.1223 N   0  0  0  0  0  0  0  0  0  0  0  0
   10.1812    1.0678   -3.2410 C   0  0  0  0  0  0  0  0  0  0  0  0
   10.4456    1.8747   -2.1187 C   0  0  0  0  0  0  0  0  0  0  0  0
   11.5322    2.8087   -1.8810 C   0  0  0  0  0  0  0  0  0  0  0  0
   11.3877    3.8303   -1.2169 O   0  0  0  0  0  0  0  0  0  0  0  0
   12.7436    2.4486   -2.4237 N   0  0  0  0  0  0  0  0  0  0  0  0
   13.9368    3.2086   -2.1117 C   0  0  0  0  0  0  0  0  0  0  0  0
   14.6138    2.7378   -0.8431 C   0  0  0  0  0  0  0  0  0  0  0  0
   14.2161    3.2412    0.3924 C   0  0  0  0  0  0  0  0  0  0  0  0
   14.9288    2.8688    1.5295 C   0  0  0  0  0  0  0  0  0  0  0  0
   14.6553    3.3300    2.7960 O   0  0  0  0  0  0  0  0  0  0  0  0
   14.2239    4.6245    2.9767 C   0  0  0  0  0  0  0  0  0  0  0  0
   14.6570    5.7094    2.2042 C   0  0  0  0  0  0  0  0  0  0  0  0
   14.1543    6.9906    2.4455 C   0  0  0  0  0  0  0  0  0  0  0  0
   13.2594    7.1982    3.4929 C   0  0  0  0  0  0  0  0  0  0  0  0
   12.8794    6.1249    4.2916 C   0  0  0  0  0  0  0  0  0  0  0  0
   12.0426    6.3333    5.3167 F   0  0  0  0  0  0  0  0  0  0  0  0
   13.3534    4.8412    4.0448 C   0  0  0  0  0  0  0  0  0  0  0  0
   15.9482    1.9301    1.4210 C   0  0  0  0  0  0  0  0  0  0  0  0
   16.2468    1.4412    0.1625 C   0  0  0  0  0  0  0  0  0  0  0  0
   15.6125    1.8269   -0.9681 N   0  0  0  0  0  0  0  0  0  0  0  0
    9.3937    1.6054   -1.2540 C   0  0  0  0  0  0  0  0  0  0  0  0
    9.1429    2.1225    0.1222 C   0  0  0  0  0  0  0  0  0  0  0  0
    6.8863    0.5273   -0.2060 N   0  0  0  0  0  0  0  0  0  0  0  0
    5.7508   -0.0085    0.3217 N   0  0  0  0  0  0  0  0  0  0  0  0
    2.5491   -1.9247    3.1856 H   0  0  0  0  0  0  0  0  0  0  0  0
    2.3537   -2.9040    1.7096 H   0  0  0  0  0  0  0  0  0  0  0  0
    1.7555   -1.2463    1.7475 H   0  0  0  0  0  0  0  0  0  0  0  0
    4.7042   -2.0232    1.9914 H   0  0  0  0  0  0  0  0  0  0  0  0
    4.0286   -0.3636    1.9364 H   0  0  0  0  0  0  0  0  0  0  0  0
    4.8748   -2.0639   -2.1898 H   0  0  0  0  0  0  0  0  0  0  0  0
    6.9674   -1.1028   -3.1595 H   0  0  0  0  0  0  0  0  0  0  0  0
   10.7537    0.9856   -4.1569 H   0  0  0  0  0  0  0  0  0  0  0  0
   12.8772    1.5036   -2.7577 H   0  0  0  0  0  0  0  0  0  0  0  0
   13.6960    4.2755   -2.0322 H   0  0  0  0  0  0  0  0  0  0  0  0
   14.6247    3.0947   -2.9564 H   0  0  0  0  0  0  0  0  0  0  0  0
   13.3802    3.9316    0.4544 H   0  0  0  0  0  0  0  0  0  0  0  0
   15.3772    5.5721    1.4022 H   0  0  0  0  0  0  0  0  0  0  0  0
   14.4632    7.8228    1.8181 H   0  0  0  0  0  0  0  0  0  0  0  0
   12.8631    8.1878    3.6969 H   0  0  0  0  0  0  0  0  0  0  0  0
   13.0382    4.0221    4.6824 H   0  0  0  0  0  0  0  0  0  0  0  0
   16.4963    1.5944    2.2929 H   0  0  0  0  0  0  0  0  0  0  0  0
   17.0355    0.7068    0.0237 H   0  0  0  0  0  0  0  0  0  0  0  0
    9.9566    2.7590    0.4779 H   0  0  0  0  0  0  0  0  0  0  0  0
    9.0683    1.2958    0.8363 H   0  0  0  0  0  0  0  0  0  0  0  0
    8.2259    2.7188    0.1534 H   0  0  0  0  0  0  0  0  0  0  0  0
  1  2  1  0  0  0  0
  1 34  1  0  0  0  0
  1 35  1  0  0  0  0
  1 36  1  0  0  0  0
  2  3  1  0  0  0  0
  2 37  1  0  0  0  0
  2 38  1  0  0  0  0
  3  4  1  0  0  0  0
  4  5  2  0  0  0  0
  4 33  1  0  0  0  0
  5  6  1  0  0  0  0
  5 39  1  0  0  0  0
  6  7  2  0  0  0  0
  6 40  1  0  0  0  0
  7  8  1  0  0  0  0
  7 32  1  0  0  0  0
  8  9  1  0  0  0  0
  8 30  1  0  0  0  0
  9 10  2  0  0  0  0
 10 11  1  0  0  0  0
 10 41  1  0  0  0  0
 11 12  1  0  0  0  0
 11 30  2  0  0  0  0
 12 13  2  0  0  0  0
 12 14  1  0  0  0  0
 14 15  1  0  0  0  0
 14 42  1  0  0  0  0
 15 16  1  0  0  0  0
 15 43  1  0  0  0  0
 15 44  1  0  0  0  0
 16 17  2  0  0  0  0
 16 29  1  0  0  0  0
 17 18  1  0  0  0  0
 17 45  1  0  0  0  0
 18 19  1  0  0  0  0
 18 27  2  0  0  0  0
 19 20  1  0  0  0  0
 20 21  2  0  0  0  0
 20 26  1  0  0  0  0
 21 22  1  0  0  0  0
 21 46  1  0  0  0  0
 22 23  2  0  0  0  0
 22 47  1  0  0  0  0
 23 24  1  0  0  0  0
 23 48  1  0  0  0  0
 24 25  1  0  0  0  0
 24 26  2  0  0  0  0
 26 49  1  0  0  0  0
 27 28  1  0  0  0  0
 27 50  1  0  0  0  0
 28 29  2  0  0  0  0
 28 51  1  0  0  0  0
 30 31  1  0  0  0  0
 31 52  1  0  0  0  0
 31 53  1  0  0  0  0
 31 54  1  0  0  0  0
 32 33  2  0  0  0  0
M  END
$$$$
