
 OpenBabel01122422373D

 46 49  0  0  0  0  0  0  0  0999 V2000
    3.0291    1.3173   -0.8268 C   0  0  0  0  0  0  0  0  0  0  0  0
    2.3252    0.1084   -0.4064 N   0  0  0  0  0  0  0  0  0  0  0  0
    0.9703    0.1117   -0.1282 C   0  0  0  0  0  0  0  0  0  0  0  0
    0.2415   -0.9505    0.2238 C   0  0  0  0  0  0  0  0  0  0  0  0
    0.9190   -2.2556    0.3153 C   0  0  0  0  0  0  0  0  0  0  0  0
    0.2786   -3.2555    0.6195 O   0  0  0  0  0  0  0  0  0  0  0  0
    2.3789   -2.2872    0.0487 C   0  0  0  0  0  0  0  0  0  0  0  0
    3.0511   -3.5103    0.1618 C   0  0  0  0  0  0  0  0  0  0  0  0
    4.4283   -3.5861   -0.0362 C   0  0  0  0  0  0  0  0  0  0  0  0
    5.1496   -4.7997    0.0442 N   0  0  0  0  0  0  0  0  0  0  0  0
    4.5713   -6.0555   -0.0583 C   0  0  0  0  0  0  0  0  0  0  0  0
    3.3854   -6.2829   -0.2662 O   0  0  0  0  0  0  0  0  0  0  0  0
    5.4850   -7.2278   -0.0156 C   0  0  0  0  0  0  0  0  0  0  0  0
    6.6971   -7.2492    0.6825 C   0  0  0  0  0  0  0  0  0  0  0  0
    7.4813   -8.4126    0.6777 C   0  0  0  0  0  0  0  0  0  0  0  0
    7.0540   -9.5551   -0.0076 C   0  0  0  0  0  0  0  0  0  0  0  0
    7.8940  -10.6516    0.0285 O   0  0  0  0  0  0  0  0  0  0  0  0
    7.3130  -11.9073   -0.0816 C   0  0  0  0  0  0  0  0  0  0  0  0
    8.0164  -12.8825   -0.7740 C   0  0  0  0  0  0  0  0  0  0  0  0
    7.3846  -14.1023   -1.0142 C   0  0  0  0  0  0  0  0  0  0  0  0
    6.0823  -14.3014   -0.5495 C   0  0  0  0  0  0  0  0  0  0  0  0
    5.3582  -15.4913   -0.8423 C   0  0  0  0  0  0  0  0  0  0  0  0
    4.7529  -16.4525   -1.0944 N   0  0  0  0  0  0  0  0  0  0  0  0
    5.4876  -13.2919    0.1872 C   0  0  0  0  0  0  0  0  0  0  0  0
    6.0865  -12.1123    0.4508 N   0  0  0  0  0  0  0  0  0  0  0  0
    5.8523   -9.5179   -0.7201 C   0  0  0  0  0  0  0  0  0  0  0  0
    5.0632   -8.3725   -0.7030 C   0  0  0  0  0  0  0  0  0  0  0  0
    5.1257   -2.4118   -0.3259 C   0  0  0  0  0  0  0  0  0  0  0  0
    4.4437   -1.1908   -0.4732 C   0  0  0  0  0  0  0  0  0  0  0  0
    3.0541   -1.0980   -0.2898 C   0  0  0  0  0  0  0  0  0  0  0  0
    2.3532    2.1790   -0.8775 H   0  0  0  0  0  0  0  0  0  0  0  0
    3.4603    1.1905   -1.8265 H   0  0  0  0  0  0  0  0  0  0  0  0
    3.8213    1.5762   -0.1162 H   0  0  0  0  0  0  0  0  0  0  0  0
    0.4916    1.0841   -0.2072 H   0  0  0  0  0  0  0  0  0  0  0  0
   -0.8162   -0.9130    0.4447 H   0  0  0  0  0  0  0  0  0  0  0  0
    2.4671   -4.3861    0.4295 H   0  0  0  0  0  0  0  0  0  0  0  0
    6.1569   -4.7380   -0.0029 H   0  0  0  0  0  0  0  0  0  0  0  0
    7.0286   -6.3943    1.2639 H   0  0  0  0  0  0  0  0  0  0  0  0
    8.4178   -8.4359    1.2290 H   0  0  0  0  0  0  0  0  0  0  0  0
    9.0146  -12.6884   -1.1517 H   0  0  0  0  0  0  0  0  0  0  0  0
    7.8934  -14.8770   -1.5835 H   0  0  0  0  0  0  0  0  0  0  0  0
    4.4765  -13.3825    0.5784 H   0  0  0  0  0  0  0  0  0  0  0  0
    5.4874  -10.3789   -1.2718 H   0  0  0  0  0  0  0  0  0  0  0  0
    4.1075   -8.3801   -1.2256 H   0  0  0  0  0  0  0  0  0  0  0  0
    6.2029   -2.4258   -0.4741 H   0  0  0  0  0  0  0  0  0  0  0  0
    5.0358   -0.3174   -0.7308 H   0  0  0  0  0  0  0  0  0  0  0  0
  1  2  1  0  0  0  0
  1 31  1  0  0  0  0
  1 32  1  0  0  0  0
  1 33  1  0  0  0  0
  2  3  1  0  0  0  0
  2 30  1  0  0  0  0
  3  4  2  0  0  0  0
  3 34  1  0  0  0  0
  4  5  1  0  0  0  0
  4 35  1  0  0  0  0
  5  6  2  0  0  0  0
  5  7  1  0  0  0  0
  7  8  2  0  0  0  0
  7 30  1  0  0  0  0
  8  9  1  0  0  0  0
  8 36  1  0  0  0  0
  9 10  1  0  0  0  0
  9 28  2  0  0  0  0
 10 11  1  0  0  0  0
 10 37  1  0  0  0  0
 11 12  2  0  0  0  0
 11 13  1  0  0  0  0
 13 14  2  0  0  0  0
 13 27  1  0  0  0  0
 14 15  1  0  0  0  0
 14 38  1  0  0  0  0
 15 16  2  0  0  0  0
 15 39  1  0  0  0  0
 16 17  1  0  0  0  0
 16 26  1  0  0  0  0
 17 18  1  0  0  0  0
 18 19  2  0  0  0  0
 18 25  1  0  0  0  0
 19 20  1  0  0  0  0
 19 40  1  0  0  0  0
 20 21  2  0  0  0  0
 20 41  1  0  0  0  0
 21 22  1  0  0  0  0
 21 24  1  0  0  0  0
 22 23  3  0  0  0  0
 24 25  2  0  0  0  0
 24 42  1  0  0  0  0
 26 27  2  0  0  0  0
 26 43  1  0  0  0  0
 27 44  1  0  0  0  0
 28 29  1  0  0  0  0
 28 45  1  0  0  0  0
 29 30  2  0  0  0  0
 29 46  1  0  0  0  0
M  END
$$$$
