
 OpenBabel01122422373D

 41 44  0  0  0  0  0  0  0  0999 V2000
    0.8871    0.2002    0.2796 O   0  0  0  0  0  0  0  0  0  0  0  0
    2.0842    0.1104    0.0422 C   0  0  0  0  0  0  0  0  0  0  0  0
    2.7207    0.3379   -1.1540 N   0  0  0  0  0  0  0  0  0  0  0  0
    2.0741    0.7209   -2.2936 C   0  0  0  0  0  0  0  0  0  0  0  0
    0.8195    1.1435   -2.4063 N   0  0  0  0  0  0  0  0  0  0  0  0
    0.6577    1.2645   -3.7352 N   0  0  0  0  0  0  0  0  0  0  0  0
   -0.5935    1.6111   -4.3002 C   0  0  0  0  0  0  0  0  0  0  0  0
   -1.6656    1.9412   -3.4542 C   0  0  0  0  0  0  0  0  0  0  0  0
   -2.8990    2.2761   -4.0050 C   0  0  0  0  0  0  0  0  0  0  0  0
   -3.9165    2.6015   -3.1967 F   0  0  0  0  0  0  0  0  0  0  0  0
   -3.0954    2.2796   -5.3781 C   0  0  0  0  0  0  0  0  0  0  0  0
   -2.0331    1.9434   -6.2047 C   0  0  0  0  0  0  0  0  0  0  0  0
   -2.2101    1.9296   -7.5321 F   0  0  0  0  0  0  0  0  0  0  0  0
   -0.7820    1.6137   -5.6867 C   0  0  0  0  0  0  0  0  0  0  0  0
    1.8480    0.9822   -4.3580 C   0  0  0  0  0  0  0  0  0  0  0  0
    2.7626    0.6606   -3.4700 N   0  0  0  0  0  0  0  0  0  0  0  0
    2.9680   -0.3628    1.1337 C   0  0  0  0  0  0  0  0  0  0  0  0
    2.4890   -1.3598    1.9859 C   0  0  0  0  0  0  0  0  0  0  0  0
    3.2658   -1.7953    3.0625 C   0  0  0  0  0  0  0  0  0  0  0  0
    4.5244   -1.2272    3.3357 C   0  0  0  0  0  0  0  0  0  0  0  0
    5.3106   -1.6344    4.5209 C   0  0  0  0  0  0  0  0  0  0  0  0
    6.7132   -1.6324    4.5321 C   0  0  0  0  0  0  0  0  0  0  0  0
    7.4187   -1.9887    5.6820 C   0  0  0  0  0  0  0  0  0  0  0  0
    6.7026   -2.3577    6.8053 C   0  0  0  0  0  0  0  0  0  0  0  0
    5.3573   -2.3892    6.8507 N   0  0  0  0  0  0  0  0  0  0  0  0
    4.7030   -2.0242    5.7196 C   0  0  0  0  0  0  0  0  0  0  0  0
    4.9867   -0.2283    2.4548 C   0  0  0  0  0  0  0  0  0  0  0  0
    4.2242    0.2000    1.3610 C   0  0  0  0  0  0  0  0  0  0  0  0
    3.6816    0.0703   -1.2975 H   0  0  0  0  0  0  0  0  0  0  0  0
   -1.5608    1.9457   -2.3703 H   0  0  0  0  0  0  0  0  0  0  0  0
   -4.0612    2.5369   -5.7963 H   0  0  0  0  0  0  0  0  0  0  0  0
   -0.0006    1.3515   -6.3913 H   0  0  0  0  0  0  0  0  0  0  0  0
    1.9933    1.0202   -5.4268 H   0  0  0  0  0  0  0  0  0  0  0  0
    1.5045   -1.7942    1.8197 H   0  0  0  0  0  0  0  0  0  0  0  0
    2.8587   -2.5838    3.6927 H   0  0  0  0  0  0  0  0  0  0  0  0
    7.2777   -1.3580    3.6447 H   0  0  0  0  0  0  0  0  0  0  0  0
    8.5026   -1.9772    5.6974 H   0  0  0  0  0  0  0  0  0  0  0  0
    7.2050   -2.6436    7.7244 H   0  0  0  0  0  0  0  0  0  0  0  0
    3.6208   -2.0426    5.8250 H   0  0  0  0  0  0  0  0  0  0  0  0
    5.9405    0.2649    2.6332 H   0  0  0  0  0  0  0  0  0  0  0  0
    4.6013    1.0035    0.7340 H   0  0  0  0  0  0  0  0  0  0  0  0
  1  2  2  0  0  0  0
  2  3  1  0  0  0  0
  2 17  1  0  0  0  0
  3  4  1  0  0  0  0
  3 29  1  0  0  0  0
  4  5  2  0  0  0  0
  4 16  1  0  0  0  0
  5  6  1  0  0  0  0
  6  7  1  0  0  0  0
  6 15  1  0  0  0  0
  7  8  2  0  0  0  0
  7 14  1  0  0  0  0
  8  9  1  0  0  0  0
  8 30  1  0  0  0  0
  9 10  1  0  0  0  0
  9 11  2  0  0  0  0
 11 12  1  0  0  0  0
 11 31  1  0  0  0  0
 12 13  1  0  0  0  0
 12 14  2  0  0  0  0
 14 32  1  0  0  0  0
 15 16  2  0  0  0  0
 15 33  1  0  0  0  0
 17 18  2  0  0  0  0
 17 28  1  0  0  0  0
 18 19  1  0  0  0  0
 18 34  1  0  0  0  0
 19 20  2  0  0  0  0
 19 35  1  0  0  0  0
 20 21  1  0  0  0  0
 20 27  1  0  0  0  0
 21 22  2  0  0  0  0
 21 26  1  0  0  0  0
 22 23  1  0  0  0  0
 22 36  1  0  0  0  0
 23 24  2  0  0  0  0
 23 37  1  0  0  0  0
 24 25  1  0  0  0  0
 24 38  1  0  0  0  0
 25 26  2  0  0  0  0
 26 39  1  0  0  0  0
 27 28  2  0  0  0  0
 27 40  1  0  0  0  0
 28 41  1  0  0  0  0
M  END
$$$$
