
 OpenBabel01122422373D

 54 57  0  0  0  0  0  0  0  0999 V2000
    0.7630  -10.6142    1.6894 N   0  0  0  0  0  0  0  0  0  0  0  0
    1.1144   -9.8324    0.6199 C   0  0  0  0  0  0  0  0  0  0  0  0
    1.1593  -10.2907   -0.5145 O   0  0  0  0  0  0  0  0  0  0  0  0
    1.4215   -8.3994    0.9353 C   0  0  0  0  0  0  0  0  0  0  0  0
    1.7217   -7.5164   -0.0940 C   0  0  0  0  0  0  0  0  0  0  0  0
    2.0064   -6.1801    0.2163 C   0  0  0  0  0  0  0  0  0  0  0  0
    2.3897   -5.1889   -0.8578 C   0  0  0  0  0  0  0  0  0  0  0  0
    1.3288   -4.9427   -1.8119 N   0  0  0  0  0  0  0  0  0  0  0  0
    1.2116   -5.6613   -2.9824 C   0  0  0  0  0  0  0  0  0  0  0  0
    1.9869   -6.5480   -3.3085 O   0  0  0  0  0  0  0  0  0  0  0  0
    0.0581   -5.2109   -3.8587 C   0  0  0  0  0  0  0  0  0  0  0  0
   -0.4436   -6.3498   -4.7412 C   0  0  0  0  0  0  0  0  0  0  0  0
   -1.5988   -5.9042   -5.5651 C   0  0  0  0  0  0  0  0  0  0  0  0
   -2.7647   -5.4455   -5.1518 N   0  0  0  0  0  0  0  0  0  0  0  0
   -3.4504   -5.1892   -6.3186 C   0  0  0  0  0  0  0  0  0  0  0  0
   -4.8111   -4.6729   -6.3637 C   0  0  0  0  0  0  0  0  0  0  0  0
   -5.2548   -3.7691   -5.3931 C   0  0  0  0  0  0  0  0  0  0  0  0
   -6.5069   -3.1574   -5.5192 C   0  0  0  0  0  0  0  0  0  0  0  0
   -7.3177   -3.4324   -6.6209 C   0  0  0  0  0  0  0  0  0  0  0  0
   -6.9054   -4.3608   -7.5695 C   0  0  0  0  0  0  0  0  0  0  0  0
   -5.6804   -5.0076   -7.4151 C   0  0  0  0  0  0  0  0  0  0  0  0
   -2.6324   -5.4417   -7.4105 C   0  0  0  0  0  0  0  0  0  0  0  0
   -2.7598   -5.2813   -8.8561 C   0  0  0  0  0  0  0  0  0  0  0  0
   -3.4472   -4.1694   -9.3750 C   0  0  0  0  0  0  0  0  0  0  0  0
   -3.7902   -4.0948  -10.7244 C   0  0  0  0  0  0  0  0  0  0  0  0
   -3.3843   -5.1007  -11.5929 C   0  0  0  0  0  0  0  0  0  0  0  0
   -2.6337   -6.1737  -11.1104 C   0  0  0  0  0  0  0  0  0  0  0  0
   -2.3265   -6.2688   -9.7470 C   0  0  0  0  0  0  0  0  0  0  0  0
   -1.4478   -5.9388   -6.9279 O   0  0  0  0  0  0  0  0  0  0  0  0
    1.9859   -5.8053    1.5647 C   0  0  0  0  0  0  0  0  0  0  0  0
    1.6785   -6.7598    2.5295 C   0  0  0  0  0  0  0  0  0  0  0  0
    1.3875   -8.0468    2.2518 N   0  0  0  0  0  0  0  0  0  0  0  0
    0.5180  -11.5809    1.5351 H   0  0  0  0  0  0  0  0  0  0  0  0
    0.6926  -10.2003    2.6116 H   0  0  0  0  0  0  0  0  0  0  0  0
    1.7472   -7.8724   -1.1218 H   0  0  0  0  0  0  0  0  0  0  0  0
    3.2915   -5.5322   -1.3718 H   0  0  0  0  0  0  0  0  0  0  0  0
    2.6219   -4.2171   -0.4042 H   0  0  0  0  0  0  0  0  0  0  0  0
    0.7116   -4.1584   -1.6481 H   0  0  0  0  0  0  0  0  0  0  0  0
    0.4140   -4.3772   -4.4716 H   0  0  0  0  0  0  0  0  0  0  0  0
   -0.7549   -4.8356   -3.2238 H   0  0  0  0  0  0  0  0  0  0  0  0
   -0.7607   -7.1930   -4.1141 H   0  0  0  0  0  0  0  0  0  0  0  0
    0.3614   -6.7230   -5.3845 H   0  0  0  0  0  0  0  0  0  0  0  0
   -4.6179   -3.5169   -4.5481 H   0  0  0  0  0  0  0  0  0  0  0  0
   -6.8419   -2.4486   -4.7667 H   0  0  0  0  0  0  0  0  0  0  0  0
   -8.2733   -2.9285   -6.7383 H   0  0  0  0  0  0  0  0  0  0  0  0
   -7.5220   -4.5761   -8.4384 H   0  0  0  0  0  0  0  0  0  0  0  0
   -5.3920   -5.7422   -8.1642 H   0  0  0  0  0  0  0  0  0  0  0  0
   -3.7853   -3.3734   -8.7135 H   0  0  0  0  0  0  0  0  0  0  0  0
   -4.3927   -3.2641  -11.0828 H   0  0  0  0  0  0  0  0  0  0  0  0
   -3.6557   -5.0491  -12.6441 H   0  0  0  0  0  0  0  0  0  0  0  0
   -2.3104   -6.9537  -11.7951 H   0  0  0  0  0  0  0  0  0  0  0  0
   -1.7845   -7.1393   -9.3841 H   0  0  0  0  0  0  0  0  0  0  0  0
    2.2183   -4.7910    1.8731 H   0  0  0  0  0  0  0  0  0  0  0  0
    1.6688   -6.4993    3.5840 H   0  0  0  0  0  0  0  0  0  0  0  0
  1  2  1  0  0  0  0
  1 33  1  0  0  0  0
  1 34  1  0  0  0  0
  2  3  2  0  0  0  0
  2  4  1  0  0  0  0
  4  5  2  0  0  0  0
  4 32  1  0  0  0  0
  5  6  1  0  0  0  0
  5 35  1  0  0  0  0
  6  7  1  0  0  0  0
  6 30  2  0  0  0  0
  7  8  1  0  0  0  0
  7 36  1  0  0  0  0
  7 37  1  0  0  0  0
  8  9  1  0  0  0  0
  8 38  1  0  0  0  0
  9 10  2  0  0  0  0
  9 11  1  0  0  0  0
 11 12  1  0  0  0  0
 11 39  1  0  0  0  0
 11 40  1  0  0  0  0
 12 13  1  0  0  0  0
 12 41  1  0  0  0  0
 12 42  1  0  0  0  0
 13 14  2  0  0  0  0
 13 29  1  0  0  0  0
 14 15  1  0  0  0  0
 15 16  1  0  0  0  0
 15 22  2  0  0  0  0
 16 17  2  0  0  0  0
 16 21  1  0  0  0  0
 17 18  1  0  0  0  0
 17 43  1  0  0  0  0
 18 19  2  0  0  0  0
 18 44  1  0  0  0  0
 19 20  1  0  0  0  0
 19 45  1  0  0  0  0
 20 21  2  0  0  0  0
 20 46  1  0  0  0  0
 21 47  1  0  0  0  0
 22 23  1  0  0  0  0
 22 29  1  0  0  0  0
 23 24  2  0  0  0  0
 23 28  1  0  0  0  0
 24 25  1  0  0  0  0
 24 48  1  0  0  0  0
 25 26  2  0  0  0  0
 25 49  1  0  0  0  0
 26 27  1  0  0  0  0
 26 50  1  0  0  0  0
 27 28  2  0  0  0  0
 27 51  1  0  0  0  0
 28 52  1  0  0  0  0
 30 31  1  0  0  0  0
 30 53  1  0  0  0  0
 31 32  2  0  0  0  0
 31 54  1  0  0  0  0
M  END
$$$$
