
 OpenBabel01122422373D

 45 48  0  0  0  0  0  0  0  0999 V2000
   -3.3416   -0.2851   -0.0208 N   0  0  0  0  0  0  0  0  0  0  0  0
   -2.1963   -0.1763    0.1553 C   0  0  0  0  0  0  0  0  0  0  0  0
   -0.7876   -0.0697    0.4118 C   0  0  0  0  0  0  0  0  0  0  0  0
   -0.1037   -1.2897    0.5960 C   0  0  0  0  0  0  0  0  0  0  0  0
    1.2726   -1.3134    0.7891 C   0  0  0  0  0  0  0  0  0  0  0  0
    1.9755   -0.1207    0.8046 C   0  0  0  0  0  0  0  0  0  0  0  0
    1.3009    1.1032    0.6540 C   0  0  0  0  0  0  0  0  0  0  0  0
   -0.0972    1.1704    0.4602 C   0  0  0  0  0  0  0  0  0  0  0  0
   -0.7578    2.5106    0.3328 C   0  0  0  0  0  0  0  0  0  0  0  0
   -0.1267    3.5947   -0.3177 C   0  0  0  0  0  0  0  0  0  0  0  0
   -0.7476    4.8516   -0.4426 C   0  0  0  0  0  0  0  0  0  0  0  0
   -2.0302    5.0536    0.0690 C   0  0  0  0  0  0  0  0  0  0  0  0
   -2.7248    6.3628   -0.1045 C   0  0  0  0  0  0  0  0  0  0  0  0
   -2.5100    7.0433   -1.1005 O   0  0  0  0  0  0  0  0  0  0  0  0
   -3.5482    6.7179    0.9484 N   0  0  0  0  0  0  0  0  0  0  0  0
   -4.1173    7.9700    0.9814 C   0  0  0  0  0  0  0  0  0  0  0  0
   -4.0908    8.7643    2.0302 N   0  0  0  0  0  0  0  0  0  0  0  0
   -4.7021    9.9308    1.6475 N   0  0  0  0  0  0  0  0  0  0  0  0
   -5.1816    9.8349    0.4167 N   0  0  0  0  0  0  0  0  0  0  0  0
   -4.8777    8.5810    0.0118 N   0  0  0  0  0  0  0  0  0  0  0  0
   -5.5738    8.0095   -1.1257 C   0  0  0  0  0  0  0  0  0  0  0  0
   -6.8614    7.3041   -0.7285 C   0  0  0  0  0  0  0  0  0  0  0  0
   -7.8954    7.9877   -0.0617 C   0  0  0  0  0  0  0  0  0  0  0  0
   -9.0760    7.3307    0.2961 C   0  0  0  0  0  0  0  0  0  0  0  0
   -9.2368    5.9894   -0.0257 C   0  0  0  0  0  0  0  0  0  0  0  0
  -10.3672    5.3572    0.3177 F   0  0  0  0  0  0  0  0  0  0  0  0
   -8.2427    5.2977   -0.7054 C   0  0  0  0  0  0  0  0  0  0  0  0
   -7.0583    5.9521   -1.0595 C   0  0  0  0  0  0  0  0  0  0  0  0
   -2.6725    4.0022    0.7203 C   0  0  0  0  0  0  0  0  0  0  0  0
   -2.0305    2.7669    0.8721 C   0  0  0  0  0  0  0  0  0  0  0  0
   -0.6511   -2.2324    0.5819 H   0  0  0  0  0  0  0  0  0  0  0  0
    1.7907   -2.2596    0.9197 H   0  0  0  0  0  0  0  0  0  0  0  0
    3.0553   -0.1276    0.9420 H   0  0  0  0  0  0  0  0  0  0  0  0
    1.8995    2.0072    0.7000 H   0  0  0  0  0  0  0  0  0  0  0  0
    0.8654    3.4777   -0.7529 H   0  0  0  0  0  0  0  0  0  0  0  0
   -0.2208    5.6640   -0.9423 H   0  0  0  0  0  0  0  0  0  0  0  0
   -3.2796    6.3683    1.8609 H   0  0  0  0  0  0  0  0  0  0  0  0
   -4.8952    7.3230   -1.6357 H   0  0  0  0  0  0  0  0  0  0  0  0
   -5.8035    8.8206   -1.8268 H   0  0  0  0  0  0  0  0  0  0  0  0
   -7.7944    9.0433    0.1903 H   0  0  0  0  0  0  0  0  0  0  0  0
   -9.8682    7.8564    0.8200 H   0  0  0  0  0  0  0  0  0  0  0  0
   -8.3979    4.2535   -0.9589 H   0  0  0  0  0  0  0  0  0  0  0  0
   -6.2961    5.3960   -1.6021 H   0  0  0  0  0  0  0  0  0  0  0  0
   -3.6862    4.1076    1.0988 H   0  0  0  0  0  0  0  0  0  0  0  0
   -2.5706    2.0050    1.4295 H   0  0  0  0  0  0  0  0  0  0  0  0
  1  2  3  0  0  0  0
  2  3  1  0  0  0  0
  3  4  2  0  0  0  0
  3  8  1  0  0  0  0
  4  5  1  0  0  0  0
  4 31  1  0  0  0  0
  5  6  2  0  0  0  0
  5 32  1  0  0  0  0
  6  7  1  0  0  0  0
  6 33  1  0  0  0  0
  7  8  2  0  0  0  0
  7 34  1  0  0  0  0
  8  9  1  0  0  0  0
  9 10  2  0  0  0  0
  9 30  1  0  0  0  0
 10 11  1  0  0  0  0
 10 35  1  0  0  0  0
 11 12  2  0  0  0  0
 11 36  1  0  0  0  0
 12 13  1  0  0  0  0
 12 29  1  0  0  0  0
 13 14  2  0  0  0  0
 13 15  1  0  0  0  0
 15 16  1  0  0  0  0
 15 37  1  0  0  0  0
 16 17  2  0  0  0  0
 16 20  1  0  0  0  0
 17 18  1  0  0  0  0
 18 19  2  0  0  0  0
 19 20  1  0  0  0  0
 20 21  1  0  0  0  0
 21 22  1  0  0  0  0
 21 38  1  0  0  0  0
 21 39  1  0  0  0  0
 22 23  2  0  0  0  0
 22 28  1  0  0  0  0
 23 24  1  0  0  0  0
 23 40  1  0  0  0  0
 24 25  2  0  0  0  0
 24 41  1  0  0  0  0
 25 26  1  0  0  0  0
 25 27  1  0  0  0  0
 27 28  2  0  0  0  0
 27 42  1  0  0  0  0
 28 43  1  0  0  0  0
 29 30  2  0  0  0  0
 29 44  1  0  0  0  0
 30 45  1  0  0  0  0
M  END
$$$$
