
 OpenBabel01122422373D

 49 52  0  0  0  0  0  0  0  0999 V2000
    1.1619    0.1301   -0.0761 O   0  0  0  0  0  0  0  0  0  0  0  0
    2.3888    0.2074   -0.0457 C   0  0  0  0  0  0  0  0  0  0  0  0
    3.0509    1.2839    0.4671 N   0  0  0  0  0  0  0  0  0  0  0  0
    2.3290    2.4755    0.8548 C   0  0  0  0  0  0  0  0  0  0  0  0
    3.0584    3.2781    1.9026 C   0  0  0  0  0  0  0  0  0  0  0  0
    3.3960    4.6251    1.6944 C   0  0  0  0  0  0  0  0  0  0  0  0
    3.9914    5.3758    2.7221 C   0  0  0  0  0  0  0  0  0  0  0  0
    4.2441    4.7882    3.9645 C   0  0  0  0  0  0  0  0  0  0  0  0
    4.8505    5.5714    5.0654 C   0  0  0  0  0  0  0  0  0  0  0  0
    4.0355    6.2022    5.9319 C   0  0  0  0  0  0  0  0  0  0  0  0
    4.5494    6.9195    6.9868 N   0  0  0  0  0  0  0  0  0  0  0  0
    5.8914    7.0508    7.2467 C   0  0  0  0  0  0  0  0  0  0  0  0
    6.3289    7.6866    8.1972 O   0  0  0  0  0  0  0  0  0  0  0  0
    6.8003    6.3655    6.2923 C   0  0  0  0  0  0  0  0  0  0  0  0
    6.2833    5.6733    5.2664 C   0  0  0  0  0  0  0  0  0  0  0  0
    3.9283    3.4457    4.1710 C   0  0  0  0  0  0  0  0  0  0  0  0
    3.3384    2.6970    3.1452 C   0  0  0  0  0  0  0  0  0  0  0  0
    3.1265   -0.7342   -0.6920 N   0  0  0  0  0  0  0  0  0  0  0  0
    4.5172   -0.8888   -0.7283 C   0  0  0  0  0  0  0  0  0  0  0  0
    5.1582   -0.8567    0.4593 N   0  0  0  0  0  0  0  0  0  0  0  0
    6.4459   -1.2197    0.4492 C   0  0  0  0  0  0  0  0  0  0  0  0
    7.1522   -1.5571   -0.6328 N   0  0  0  0  0  0  0  0  0  0  0  0
    6.4876   -1.4874   -1.8047 C   0  0  0  0  0  0  0  0  0  0  0  0
    5.1469   -1.1492   -1.9499 C   0  0  0  0  0  0  0  0  0  0  0  0
    4.5648   -0.8939   -3.2949 C   0  0  0  0  0  0  0  0  0  0  0  0
    5.0004   -1.5877   -4.4396 C   0  0  0  0  0  0  0  0  0  0  0  0
    4.5900   -1.2090   -5.7248 C   0  0  0  0  0  0  0  0  0  0  0  0
    3.7066   -0.1484   -5.8969 C   0  0  0  0  0  0  0  0  0  0  0  0
    3.2188    0.5231   -4.7855 C   0  0  0  0  0  0  0  0  0  0  0  0
    3.6522    0.1610   -3.5079 C   0  0  0  0  0  0  0  0  0  0  0  0
    4.0380    1.3652    0.2667 H   0  0  0  0  0  0  0  0  0  0  0  0
    1.3387    2.2048    1.2430 H   0  0  0  0  0  0  0  0  0  0  0  0
    2.1654    3.0679   -0.0511 H   0  0  0  0  0  0  0  0  0  0  0  0
    3.1864    5.1081    0.7455 H   0  0  0  0  0  0  0  0  0  0  0  0
    4.2369    6.4199    2.5454 H   0  0  0  0  0  0  0  0  0  0  0  0
    2.9508    6.1735    5.8600 H   0  0  0  0  0  0  0  0  0  0  0  0
    3.9286    7.3821    7.6404 H   0  0  0  0  0  0  0  0  0  0  0  0
    7.8623    6.4533    6.4743 H   0  0  0  0  0  0  0  0  0  0  0  0
    6.9358    5.1612    4.5634 H   0  0  0  0  0  0  0  0  0  0  0  0
    4.1196    2.9688    5.1276 H   0  0  0  0  0  0  0  0  0  0  0  0
    3.0794    1.6545    3.3261 H   0  0  0  0  0  0  0  0  0  0  0  0
    2.5792   -1.2942   -1.3316 H   0  0  0  0  0  0  0  0  0  0  0  0
    6.9623   -1.2504    1.4028 H   0  0  0  0  0  0  0  0  0  0  0  0
    7.1195   -1.6837   -2.6682 H   0  0  0  0  0  0  0  0  0  0  0  0
    5.6978   -2.4195   -4.3592 H   0  0  0  0  0  0  0  0  0  0  0  0
    4.9785   -1.7323   -6.5952 H   0  0  0  0  0  0  0  0  0  0  0  0
    3.4061    0.1618   -6.8941 H   0  0  0  0  0  0  0  0  0  0  0  0
    2.5249    1.3517   -4.9045 H   0  0  0  0  0  0  0  0  0  0  0  0
    3.2860    0.7677   -2.6835 H   0  0  0  0  0  0  0  0  0  0  0  0
  1  2  2  0  0  0  0
  2  3  1  0  0  0  0
  2 18  1  0  0  0  0
  3  4  1  0  0  0  0
  3 31  1  0  0  0  0
  4  5  1  0  0  0  0
  4 32  1  0  0  0  0
  4 33  1  0  0  0  0
  5  6  2  0  0  0  0
  5 17  1  0  0  0  0
  6  7  1  0  0  0  0
  6 34  1  0  0  0  0
  7  8  2  0  0  0  0
  7 35  1  0  0  0  0
  8  9  1  0  0  0  0
  8 16  1  0  0  0  0
  9 10  2  0  0  0  0
  9 15  1  0  0  0  0
 10 11  1  0  0  0  0
 10 36  1  0  0  0  0
 11 12  1  0  0  0  0
 11 37  1  0  0  0  0
 12 13  2  0  0  0  0
 12 14  1  0  0  0  0
 14 15  2  0  0  0  0
 14 38  1  0  0  0  0
 15 39  1  0  0  0  0
 16 17  2  0  0  0  0
 16 40  1  0  0  0  0
 17 41  1  0  0  0  0
 18 19  1  0  0  0  0
 18 42  1  0  0  0  0
 19 20  2  0  0  0  0
 19 24  1  0  0  0  0
 20 21  1  0  0  0  0
 21 22  2  0  0  0  0
 21 43  1  0  0  0  0
 22 23  1  0  0  0  0
 23 24  2  0  0  0  0
 23 44  1  0  0  0  0
 24 25  1  0  0  0  0
 25 26  2  0  0  0  0
 25 30  1  0  0  0  0
 26 27  1  0  0  0  0
 26 45  1  0  0  0  0
 27 28  2  0  0  0  0
 27 46  1  0  0  0  0
 28 29  1  0  0  0  0
 28 47  1  0  0  0  0
 29 30  2  0  0  0  0
 29 48  1  0  0  0  0
 30 49  1  0  0  0  0
M  END
$$$$
