
 OpenBabel01122422373D

 53 56  0  0  1  0  0  0  0  0999 V2000
    0.2841   -1.9705    2.2872 C   0  0  0  0  0  0  0  0  0  0  0  0
    0.7137   -1.1620    1.1732 N   0  0  0  0  0  0  0  0  0  0  0  0
    0.4194   -1.3596   -0.1421 C   0  0  0  0  0  0  0  0  0  0  0  0
    1.0313   -0.3352   -0.8232 C   0  0  0  0  0  0  0  0  0  0  0  0
    1.6752    0.4461    0.1736 C   0  0  0  0  0  0  0  0  0  0  0  0
    2.4539    1.7239   -0.0425 C   0  0  3  0  0  0  0  0  0  0  0  0
    2.3978    2.5773    1.1281 N   0  0  0  0  0  0  0  0  0  0  0  0
    1.3963    3.5092    1.2875 C   0  0  0  0  0  0  0  0  0  0  0  0
    0.5162    3.7156    0.4602 O   0  0  0  0  0  0  0  0  0  0  0  0
    1.4522    4.3139    2.5446 C   0  0  0  0  0  0  0  0  0  0  0  0
    2.6741    4.5623    3.1852 C   0  0  0  0  0  0  0  0  0  0  0  0
    2.7263    5.3844    4.3145 C   0  0  0  0  0  0  0  0  0  0  0  0
    1.5608    5.9677    4.8305 C   0  0  0  0  0  0  0  0  0  0  0  0
    1.6307    6.8728    6.0356 C   0  0  0  0  0  0  0  0  0  0  0  0
    1.8662    8.2401    5.6500 N   0  0  0  0  0  0  0  0  0  0  0  0
    1.9043    9.2687    6.5715 C   0  0  0  0  0  0  0  0  0  0  0  0
    1.7549    9.0569    7.7719 O   0  0  0  0  0  0  0  0  0  0  0  0
    2.1303   10.6002    6.0181 C   0  0  0  0  0  0  0  0  0  0  0  0
    2.2517   11.7884    6.7181 C   0  0  0  0  0  0  0  0  0  0  0  0
    2.4494   12.9152    5.8649 C   0  0  0  0  0  0  0  0  0  0  0  0
    2.4748   12.5535    4.5375 C   0  0  0  0  0  0  0  0  0  0  0  0
    2.2703   10.8719    4.3269 S   0  0  0  0  0  0  0  0  0  0  0  0
    0.3418    5.7301    4.1770 C   0  0  0  0  0  0  0  0  0  0  0  0
    0.2876    4.9088    3.0419 C   0  0  0  0  0  0  0  0  0  0  0  0
    3.8907    1.3172   -0.3592 C   0  0  0  0  0  0  0  0  0  0  0  0
    4.4772    1.7508   -1.5644 C   0  0  0  0  0  0  0  0  0  0  0  0
    5.7951    1.4135   -1.8847 C   0  0  0  0  0  0  0  0  0  0  0  0
    6.5423    0.6474   -1.0002 C   0  0  0  0  0  0  0  0  0  0  0  0
    7.8046    0.3229   -1.3104 F   0  0  0  0  0  0  0  0  0  0  0  0
    5.9985    0.2170    0.2033 C   0  0  0  0  0  0  0  0  0  0  0  0
    4.6810    0.5543    0.5258 C   0  0  0  0  0  0  0  0  0  0  0  0
    1.4907   -0.0858    1.3990 N   0  0  0  0  0  0  0  0  0  0  0  0
   -0.3156   -2.8076    1.9213 H   0  0  0  0  0  0  0  0  0  0  0  0
   -0.3140   -1.3460    2.9554 H   0  0  0  0  0  0  0  0  0  0  0  0
    1.1726   -2.3445    2.8018 H   0  0  0  0  0  0  0  0  0  0  0  0
   -0.1936   -2.1835   -0.4786 H   0  0  0  0  0  0  0  0  0  0  0  0
    1.0092   -0.1596   -1.8897 H   0  0  0  0  0  0  0  0  0  0  0  0
    2.0191    2.2613   -0.8946 H   0  0  0  0  0  0  0  0  0  0  0  0
    2.7747    2.1637    1.9689 H   0  0  0  0  0  0  0  0  0  0  0  0
    3.6003    4.1520    2.7913 H   0  0  0  0  0  0  0  0  0  0  0  0
    3.6898    5.5771    4.7831 H   0  0  0  0  0  0  0  0  0  0  0  0
    2.4379    6.5573    6.7076 H   0  0  0  0  0  0  0  0  0  0  0  0
    0.7006    6.8232    6.6136 H   0  0  0  0  0  0  0  0  0  0  0  0
    2.0356    8.4622    4.6778 H   0  0  0  0  0  0  0  0  0  0  0  0
    2.1954   11.8451    7.8002 H   0  0  0  0  0  0  0  0  0  0  0  0
    2.5636   13.9371    6.2062 H   0  0  0  0  0  0  0  0  0  0  0  0
    2.6040   13.1966    3.6771 H   0  0  0  0  0  0  0  0  0  0  0  0
   -0.5745    6.1904    4.5433 H   0  0  0  0  0  0  0  0  0  0  0  0
   -0.6660    4.7425    2.5428 H   0  0  0  0  0  0  0  0  0  0  0  0
    3.9087    2.3618   -2.2635 H   0  0  0  0  0  0  0  0  0  0  0  0
    6.2424    1.7466   -2.8160 H   0  0  0  0  0  0  0  0  0  0  0  0
    6.6017   -0.3778    0.8815 H   0  0  0  0  0  0  0  0  0  0  0  0
    4.2684    0.2051    1.4708 H   0  0  0  0  0  0  0  0  0  0  0  0
  1  2  1  0  0  0  0
  1 33  1  0  0  0  0
  1 34  1  0  0  0  0
  1 35  1  0  0  0  0
  2  3  1  0  0  0  0
  2 32  1  0  0  0  0
  3  4  2  0  0  0  0
  3 36  1  0  0  0  0
  4  5  1  0  0  0  0
  4 37  1  0  0  0  0
  5  6  1  0  0  0  0
  5 32  2  0  0  0  0
  6  7  1  0  0  0  0
  6 25  1  0  0  0  0
  6 38  1  0  0  0  0
  7  8  1  0  0  0  0
  7 39  1  0  0  0  0
  8  9  2  0  0  0  0
  8 10  1  0  0  0  0
 10 11  2  0  0  0  0
 10 24  1  0  0  0  0
 11 12  1  0  0  0  0
 11 40  1  0  0  0  0
 12 13  2  0  0  0  0
 12 41  1  0  0  0  0
 13 14  1  0  0  0  0
 13 23  1  0  0  0  0
 14 15  1  0  0  0  0
 14 42  1  0  0  0  0
 14 43  1  0  0  0  0
 15 16  1  0  0  0  0
 15 44  1  0  0  0  0
 16 17  2  0  0  0  0
 16 18  1  0  0  0  0
 18 19  2  0  0  0  0
 18 22  1  0  0  0  0
 19 20  1  0  0  0  0
 19 45  1  0  0  0  0
 20 21  2  0  0  0  0
 20 46  1  0  0  0  0
 21 22  1  0  0  0  0
 21 47  1  0  0  0  0
 23 24  2  0  0  0  0
 23 48  1  0  0  0  0
 24 49  1  0  0  0  0
 25 26  2  0  0  0  0
 25 31  1  0  0  0  0
 26 27  1  0  0  0  0
 26 50  1  0  0  0  0
 27 28  2  0  0  0  0
 27 51  1  0  0  0  0
 28 29  1  0  0  0  0
 28 30  1  0  0  0  0
 30 31  2  0  0  0  0
 30 52  1  0  0  0  0
 31 53  1  0  0  0  0
M  END
$$$$
