
 OpenBabel01122422373D

 50 53  0  0  0  0  0  0  0  0999 V2000
    1.0563    0.1643   -0.1084 O   0  0  0  0  0  0  0  0  0  0  0  0
    2.2739    0.0066   -0.0616 C   0  0  0  0  0  0  0  0  0  0  0  0
    2.9888    0.0738    1.1166 N   0  0  0  0  0  0  0  0  0  0  0  0
    2.3290    0.4056    2.3537 C   0  0  0  0  0  0  0  0  0  0  0  0
    2.9932   -0.1994    3.5662 C   0  0  0  0  0  0  0  0  0  0  0  0
    3.4747    0.6154    4.6002 C   0  0  0  0  0  0  0  0  0  0  0  0
    4.0183    0.0568    5.7633 C   0  0  0  0  0  0  0  0  0  0  0  0
    4.0891   -1.3357    5.9136 C   0  0  0  0  0  0  0  0  0  0  0  0
    4.6768   -1.9262    7.1289 C   0  0  0  0  0  0  0  0  0  0  0  0
    3.8767   -2.1770    8.1837 C   0  0  0  0  0  0  0  0  0  0  0  0
    4.3781   -2.7365    9.3341 N   0  0  0  0  0  0  0  0  0  0  0  0
    5.6956   -3.0853    9.5090 C   0  0  0  0  0  0  0  0  0  0  0  0
    6.1192   -3.5875   10.5434 O   0  0  0  0  0  0  0  0  0  0  0  0
    6.5919   -2.8118    8.3570 C   0  0  0  0  0  0  0  0  0  0  0  0
    6.0895   -2.2644    7.2422 C   0  0  0  0  0  0  0  0  0  0  0  0
    3.6039   -2.1532    4.8872 C   0  0  0  0  0  0  0  0  0  0  0  0
    3.0674   -1.5917    3.7250 C   0  0  0  0  0  0  0  0  0  0  0  0
    3.0627   -0.2475   -1.2472 C   0  0  0  0  0  0  0  0  0  0  0  0
    4.4105   -0.5503   -1.3727 C   0  0  0  0  0  0  0  0  0  0  0  0
    4.7073   -0.6642   -2.7488 C   0  0  0  0  0  0  0  0  0  0  0  0
    3.5392   -0.4691   -3.4545 C   0  0  0  0  0  0  0  0  0  0  0  0
    3.2935   -0.4826   -4.9339 C   0  0  0  0  0  0  0  0  0  0  0  0
    3.4455    0.8840   -5.5651 C   0  0  0  0  0  0  0  0  0  0  0  0
    4.6971    1.3200   -6.0276 C   0  0  0  0  0  0  0  0  0  0  0  0
    4.8561    2.6080   -6.5433 C   0  0  0  0  0  0  0  0  0  0  0  0
    3.7644    3.4703   -6.6152 C   0  0  0  0  0  0  0  0  0  0  0  0
    2.5111    3.0410   -6.1827 C   0  0  0  0  0  0  0  0  0  0  0  0
    2.3517    1.7562   -5.6577 C   0  0  0  0  0  0  0  0  0  0  0  0
    2.5443   -0.2373   -2.5288 N   0  0  0  0  0  0  0  0  0  0  0  0
    3.9909    0.2133    1.0644 H   0  0  0  0  0  0  0  0  0  0  0  0
    1.2866    0.0723    2.3212 H   0  0  0  0  0  0  0  0  0  0  0  0
    2.3219    1.4999    2.4199 H   0  0  0  0  0  0  0  0  0  0  0  0
    3.4147    1.6992    4.5181 H   0  0  0  0  0  0  0  0  0  0  0  0
    4.3780    0.7125    6.5518 H   0  0  0  0  0  0  0  0  0  0  0  0
    2.8132   -1.9539    8.1859 H   0  0  0  0  0  0  0  0  0  0  0  0
    3.7685   -2.9171   10.1210 H   0  0  0  0  0  0  0  0  0  0  0  0
    7.6360   -3.0691    8.4746 H   0  0  0  0  0  0  0  0  0  0  0  0
    6.7344   -2.0540    6.3945 H   0  0  0  0  0  0  0  0  0  0  0  0
    3.6356   -3.2364    4.9919 H   0  0  0  0  0  0  0  0  0  0  0  0
    2.6792   -2.2494    2.9464 H   0  0  0  0  0  0  0  0  0  0  0  0
    5.1123   -0.6634   -0.5635 H   0  0  0  0  0  0  0  0  0  0  0  0
    5.6824   -0.8641   -3.1794 H   0  0  0  0  0  0  0  0  0  0  0  0
    2.2976   -0.8875   -5.1555 H   0  0  0  0  0  0  0  0  0  0  0  0
    4.0005   -1.1754   -5.4114 H   0  0  0  0  0  0  0  0  0  0  0  0
    5.5606    0.6606   -5.9762 H   0  0  0  0  0  0  0  0  0  0  0  0
    5.8347    2.9424   -6.8781 H   0  0  0  0  0  0  0  0  0  0  0  0
    3.8913    4.4779   -7.0026 H   0  0  0  0  0  0  0  0  0  0  0  0
    1.6586    3.7125   -6.2432 H   0  0  0  0  0  0  0  0  0  0  0  0
    1.3691    1.4443   -5.3131 H   0  0  0  0  0  0  0  0  0  0  0  0
    1.5685   -0.0580   -2.7390 H   0  0  0  0  0  0  0  0  0  0  0  0
  1  2  2  0  0  0  0
  2  3  1  0  0  0  0
  2 18  1  0  0  0  0
  3  4  1  0  0  0  0
  3 30  1  0  0  0  0
  4  5  1  0  0  0  0
  4 31  1  0  0  0  0
  4 32  1  0  0  0  0
  5  6  2  0  0  0  0
  5 17  1  0  0  0  0
  6  7  1  0  0  0  0
  6 33  1  0  0  0  0
  7  8  2  0  0  0  0
  7 34  1  0  0  0  0
  8  9  1  0  0  0  0
  8 16  1  0  0  0  0
  9 10  2  0  0  0  0
  9 15  1  0  0  0  0
 10 11  1  0  0  0  0
 10 35  1  0  0  0  0
 11 12  1  0  0  0  0
 11 36  1  0  0  0  0
 12 13  2  0  0  0  0
 12 14  1  0  0  0  0
 14 15  2  0  0  0  0
 14 37  1  0  0  0  0
 15 38  1  0  0  0  0
 16 17  2  0  0  0  0
 16 39  1  0  0  0  0
 17 40  1  0  0  0  0
 18 19  2  0  0  0  0
 18 29  1  0  0  0  0
 19 20  1  0  0  0  0
 19 41  1  0  0  0  0
 20 21  2  0  0  0  0
 20 42  1  0  0  0  0
 21 22  1  0  0  0  0
 21 29  1  0  0  0  0
 22 23  1  0  0  0  0
 22 43  1  0  0  0  0
 22 44  1  0  0  0  0
 23 24  2  0  0  0  0
 23 28  1  0  0  0  0
 24 25  1  0  0  0  0
 24 45  1  0  0  0  0
 25 26  2  0  0  0  0
 25 46  1  0  0  0  0
 26 27  1  0  0  0  0
 26 47  1  0  0  0  0
 27 28  2  0  0  0  0
 27 48  1  0  0  0  0
 28 49  1  0  0  0  0
 29 50  1  0  0  0  0
M  END
$$$$
