
 OpenBabel01122422373D

 45 48  0  0  0  0  0  0  0  0999 V2000
    3.9011   -1.4101   -0.7509 O   0  0  0  0  0  0  0  0  0  0  0  0
    3.1452   -0.6516   -1.3835 C   0  0  0  0  0  0  0  0  0  0  0  0
    2.9941    0.6733   -0.9465 N   0  0  0  0  0  0  0  0  0  0  0  0
    2.4402    1.7335   -1.7262 C   0  0  0  0  0  0  0  0  0  0  0  0
    2.8753    1.9165   -3.0472 C   0  0  0  0  0  0  0  0  0  0  0  0
    2.2376    2.6660   -3.9743 N   0  0  0  0  0  0  0  0  0  0  0  0
    1.1463    3.3291   -3.5624 C   0  0  0  0  0  0  0  0  0  0  0  0
    0.6753    3.2922   -2.2647 C   0  0  0  0  0  0  0  0  0  0  0  0
    1.3024    2.4709   -1.3197 C   0  0  0  0  0  0  0  0  0  0  0  0
    0.7794    2.3269   -0.0475 O   0  0  0  0  0  0  0  0  0  0  0  0
   -0.5965    2.7623    0.0870 C   0  0  0  0  0  0  0  0  0  0  0  0
   -1.2818    2.2606    1.3353 C   0  0  0  0  0  0  0  0  0  0  0  0
   -2.3975    2.9503    1.8389 C   0  0  0  0  0  0  0  0  0  0  0  0
   -3.1215    2.4394    2.9160 C   0  0  0  0  0  0  0  0  0  0  0  0
   -2.7458    1.2282    3.4894 C   0  0  0  0  0  0  0  0  0  0  0  0
   -1.6403    0.5355    2.9902 C   0  0  0  0  0  0  0  0  0  0  0  0
   -0.9157    1.0464    1.9161 C   0  0  0  0  0  0  0  0  0  0  0  0
    2.5225   -1.1489   -2.6563 C   0  0  0  0  0  0  0  0  0  0  0  0
    3.2288   -2.0960   -3.4235 C   0  0  0  0  0  0  0  0  0  0  0  0
    2.9303   -2.2532   -4.7890 C   0  0  0  0  0  0  0  0  0  0  0  0
    1.9237   -1.4758   -5.3752 C   0  0  0  0  0  0  0  0  0  0  0  0
    1.7627   -1.4696   -6.7705 N   0  0  0  0  0  0  0  0  0  0  0  0
    2.5501   -2.1841   -7.6282 C   0  0  0  0  0  0  0  0  0  0  0  0
    2.4721   -2.1038   -8.8575 O   0  0  0  0  0  0  0  0  0  0  0  0
    3.5281   -3.1187   -6.9851 C   0  0  0  0  0  0  0  0  0  0  0  0
    3.6931   -3.1473   -5.6589 C   0  0  0  0  0  0  0  0  0  0  0  0
    1.1333   -0.6667   -4.5791 C   0  0  0  0  0  0  0  0  0  0  0  0
    0.1760    0.0991   -5.1260 F   0  0  0  0  0  0  0  0  0  0  0  0
    1.3903   -0.5484   -3.2176 C   0  0  0  0  0  0  0  0  0  0  0  0
    3.8283    0.9432   -0.4317 H   0  0  0  0  0  0  0  0  0  0  0  0
    3.6982    1.3332   -3.4540 H   0  0  0  0  0  0  0  0  0  0  0  0
    0.6290    3.9137   -4.3173 H   0  0  0  0  0  0  0  0  0  0  0  0
   -0.1997    3.8885   -2.0398 H   0  0  0  0  0  0  0  0  0  0  0  0
   -1.1934    2.3685   -0.7478 H   0  0  0  0  0  0  0  0  0  0  0  0
   -0.6437    3.8602    0.0914 H   0  0  0  0  0  0  0  0  0  0  0  0
   -2.7210    3.8863    1.3866 H   0  0  0  0  0  0  0  0  0  0  0  0
   -3.9837    2.9794    3.3004 H   0  0  0  0  0  0  0  0  0  0  0  0
   -3.3079    0.8218    4.3262 H   0  0  0  0  0  0  0  0  0  0  0  0
   -1.3447   -0.4099    3.4355 H   0  0  0  0  0  0  0  0  0  0  0  0
   -0.0687    0.4866    1.5251 H   0  0  0  0  0  0  0  0  0  0  0  0
    4.0663   -2.6367   -2.9813 H   0  0  0  0  0  0  0  0  0  0  0  0
    1.0852   -0.8356   -7.1863 H   0  0  0  0  0  0  0  0  0  0  0  0
    4.0714   -3.7612   -7.6595 H   0  0  0  0  0  0  0  0  0  0  0  0
    4.3928   -3.8454   -5.2001 H   0  0  0  0  0  0  0  0  0  0  0  0
    0.7807    0.1562   -2.6661 H   0  0  0  0  0  0  0  0  0  0  0  0
  1  2  2  0  0  0  0
  2  3  1  0  0  0  0
  2 18  1  0  0  0  0
  3  4  1  0  0  0  0
  3 30  1  0  0  0  0
  4  5  2  0  0  0  0
  4  9  1  0  0  0  0
  5  6  1  0  0  0  0
  5 31  1  0  0  0  0
  6  7  2  0  0  0  0
  7  8  1  0  0  0  0
  7 32  1  0  0  0  0
  8  9  2  0  0  0  0
  8 33  1  0  0  0  0
  9 10  1  0  0  0  0
 10 11  1  0  0  0  0
 11 12  1  0  0  0  0
 11 34  1  0  0  0  0
 11 35  1  0  0  0  0
 12 13  2  0  0  0  0
 12 17  1  0  0  0  0
 13 14  1  0  0  0  0
 13 36  1  0  0  0  0
 14 15  2  0  0  0  0
 14 37  1  0  0  0  0
 15 16  1  0  0  0  0
 15 38  1  0  0  0  0
 16 17  2  0  0  0  0
 16 39  1  0  0  0  0
 17 40  1  0  0  0  0
 18 19  2  0  0  0  0
 18 29  1  0  0  0  0
 19 20  1  0  0  0  0
 19 41  1  0  0  0  0
 20 21  2  0  0  0  0
 20 26  1  0  0  0  0
 21 22  1  0  0  0  0
 21 27  1  0  0  0  0
 22 23  1  0  0  0  0
 22 42  1  0  0  0  0
 23 24  2  0  0  0  0
 23 25  1  0  0  0  0
 25 26  2  0  0  0  0
 25 43  1  0  0  0  0
 26 44  1  0  0  0  0
 27 28  1  0  0  0  0
 27 29  2  0  0  0  0
 29 45  1  0  0  0  0
M  END
$$$$
