
 OpenBabel01122422373D

 45 48  0  0  0  0  0  0  0  0999 V2000
    0.9401    0.3387   -0.2783 O   0  0  0  0  0  0  0  0  0  0  0  0
    2.1530    0.2070   -0.1244 C   0  0  0  0  0  0  0  0  0  0  0  0
    2.9258   -0.7505   -0.7499 N   0  0  0  0  0  0  0  0  0  0  0  0
    2.3751   -1.7044   -1.5876 C   0  0  0  0  0  0  0  0  0  0  0  0
    2.5653   -3.0630   -1.4475 C   0  0  0  0  0  0  0  0  0  0  0  0
    3.3128   -3.7869   -0.4095 C   0  0  0  0  0  0  0  0  0  0  0  0
    4.2435   -4.6145   -0.9431 F   0  0  0  0  0  0  0  0  0  0  0  0
    4.0012   -2.9203    0.3913 F   0  0  0  0  0  0  0  0  0  0  0  0
    1.8746   -3.6597   -2.4920 N   0  0  0  0  0  0  0  0  0  0  0  0
    1.6100   -5.0360   -2.7596 C   0  0  0  0  0  0  0  0  0  0  0  0
    1.5101   -5.9827   -1.7406 C   0  0  0  0  0  0  0  0  0  0  0  0
    1.2175   -7.2920   -2.0839 C   0  0  0  0  0  0  0  0  0  0  0  0
    1.0307   -7.7157   -3.3549 N   0  0  0  0  0  0  0  0  0  0  0  0
    1.1133   -6.7781   -4.3208 C   0  0  0  0  0  0  0  0  0  0  0  0
    1.3898   -5.4398   -4.0812 C   0  0  0  0  0  0  0  0  0  0  0  0
    1.3566   -2.7236   -3.3332 N   0  0  0  0  0  0  0  0  0  0  0  0
    1.5702   -1.5564   -2.7200 C   0  0  0  0  0  0  0  0  0  0  0  0
    2.9084    1.0194    0.8328 C   0  0  0  0  0  0  0  0  0  0  0  0
    4.2514    0.9643    0.9068 N   0  0  0  0  0  0  0  0  0  0  0  0
    4.6195    1.9122    1.8462 O   0  0  0  0  0  0  0  0  0  0  0  0
    3.5069    2.5100    2.3484 C   0  0  0  0  0  0  0  0  0  0  0  0
    3.7145    3.6132    3.3145 C   0  0  0  0  0  0  0  0  0  0  0  0
    3.7746    3.0283    4.6131 O   0  0  0  0  0  0  0  0  0  0  0  0
    3.9121    3.8948    5.6666 C   0  0  0  0  0  0  0  0  0  0  0  0
    4.0099    3.2739    6.9162 C   0  0  0  0  0  0  0  0  0  0  0  0
    4.1431    4.0333    8.0828 C   0  0  0  0  0  0  0  0  0  0  0  0
    4.1786    5.4250    8.0111 C   0  0  0  0  0  0  0  0  0  0  0  0
    4.0840    6.0540    6.7724 C   0  0  0  0  0  0  0  0  0  0  0  0
    3.9537    5.2916    5.6119 C   0  0  0  0  0  0  0  0  0  0  0  0
    3.8667    5.9514    4.4477 F   0  0  0  0  0  0  0  0  0  0  0  0
    2.3948    1.9504    1.7686 C   0  0  0  0  0  0  0  0  0  0  0  0
    3.7901   -0.9825   -0.2632 H   0  0  0  0  0  0  0  0  0  0  0  0
    2.6631   -4.3550    0.2577 H   0  0  0  0  0  0  0  0  0  0  0  0
    1.5658   -5.7498   -0.6894 H   0  0  0  0  0  0  0  0  0  0  0  0
    1.1016   -8.0565   -1.3209 H   0  0  0  0  0  0  0  0  0  0  0  0
    0.9528   -7.1435   -5.3270 H   0  0  0  0  0  0  0  0  0  0  0  0
    1.4502   -4.7474   -4.9115 H   0  0  0  0  0  0  0  0  0  0  0  0
    1.1996   -0.6457   -3.1777 H   0  0  0  0  0  0  0  0  0  0  0  0
    2.8624    4.2987    3.2411 H   0  0  0  0  0  0  0  0  0  0  0  0
    4.6491    4.1381    3.0843 H   0  0  0  0  0  0  0  0  0  0  0  0
    3.9835    2.1885    6.9833 H   0  0  0  0  0  0  0  0  0  0  0  0
    4.2181    3.5365    9.0473 H   0  0  0  0  0  0  0  0  0  0  0  0
    4.2800    6.0169    8.9173 H   0  0  0  0  0  0  0  0  0  0  0  0
    4.1094    7.1371    6.6988 H   0  0  0  0  0  0  0  0  0  0  0  0
    1.3601    2.2004    1.9530 H   0  0  0  0  0  0  0  0  0  0  0  0
  1  2  2  0  0  0  0
  2  3  1  0  0  0  0
  2 18  1  0  0  0  0
  3  4  1  0  0  0  0
  3 32  1  0  0  0  0
  4  5  2  0  0  0  0
  4 17  1  0  0  0  0
  5  6  1  0  0  0  0
  5  9  1  0  0  0  0
  6  7  1  0  0  0  0
  6  8  1  0  0  0  0
  6 33  1  0  0  0  0
  9 10  1  0  0  0  0
  9 16  1  0  0  0  0
 10 11  2  0  0  0  0
 10 15  1  0  0  0  0
 11 12  1  0  0  0  0
 11 34  1  0  0  0  0
 12 13  2  0  0  0  0
 12 35  1  0  0  0  0
 13 14  1  0  0  0  0
 14 15  2  0  0  0  0
 14 36  1  0  0  0  0
 15 37  1  0  0  0  0
 16 17  2  0  0  0  0
 17 38  1  0  0  0  0
 18 19  2  0  0  0  0
 18 31  1  0  0  0  0
 19 20  1  0  0  0  0
 20 21  1  0  0  0  0
 21 22  1  0  0  0  0
 21 31  2  0  0  0  0
 22 23  1  0  0  0  0
 22 39  1  0  0  0  0
 22 40  1  0  0  0  0
 23 24  1  0  0  0  0
 24 25  2  0  0  0  0
 24 29  1  0  0  0  0
 25 26  1  0  0  0  0
 25 41  1  0  0  0  0
 26 27  2  0  0  0  0
 26 42  1  0  0  0  0
 27 28  1  0  0  0  0
 27 43  1  0  0  0  0
 28 29  2  0  0  0  0
 28 44  1  0  0  0  0
 29 30  1  0  0  0  0
 31 45  1  0  0  0  0
M  END
$$$$
