
 OpenBabel01122422373D

 42 45  0  0  0  0  0  0  0  0999 V2000
    0.9116    0.0870   -0.0366 O   0  0  0  0  0  0  0  0  0  0  0  0
    2.1287    0.1557   -0.1995 C   0  0  0  0  0  0  0  0  0  0  0  0
    2.8384   -0.5551   -1.1508 N   0  0  0  0  0  0  0  0  0  0  0  0
    2.1540   -1.3783   -2.0562 C   0  0  0  0  0  0  0  0  0  0  0  0
    1.0495   -0.8831   -2.7528 C   0  0  0  0  0  0  0  0  0  0  0  0
    0.3447   -1.7313   -3.5984 C   0  0  0  0  0  0  0  0  0  0  0  0
    0.7432   -3.0576   -3.6775 C   0  0  0  0  0  0  0  0  0  0  0  0
    0.0004   -4.0471   -4.4660 C   0  0  0  0  0  0  0  0  0  0  0  0
   -0.9575   -3.7322   -5.1614 O   0  0  0  0  0  0  0  0  0  0  0  0
    0.4373   -5.3457   -4.3612 N   0  0  0  0  0  0  0  0  0  0  0  0
    1.4840   -5.7757   -3.5971 C   0  0  0  0  0  0  0  0  0  0  0  0
    1.7669   -6.9664   -3.5051 O   0  0  0  0  0  0  0  0  0  0  0  0
    2.1933   -4.8170   -2.9436 N   0  0  0  0  0  0  0  0  0  0  0  0
    1.8537   -3.4701   -2.9530 C   0  0  0  0  0  0  0  0  0  0  0  0
    2.6059   -2.6429   -2.1909 N   0  0  0  0  0  0  0  0  0  0  0  0
    2.9023    1.0185    0.7161 C   0  0  0  0  0  0  0  0  0  0  0  0
    2.4996    1.0774    2.0549 C   0  0  0  0  0  0  0  0  0  0  0  0
    3.0720    2.0120    2.9175 C   0  0  0  0  0  0  0  0  0  0  0  0
    4.0878    2.8569    2.4613 C   0  0  0  0  0  0  0  0  0  0  0  0
    4.7186    3.8070    3.2386 O   0  0  0  0  0  0  0  0  0  0  0  0
    4.8466    3.6011    4.5921 C   0  0  0  0  0  0  0  0  0  0  0  0
    4.7019    4.7232    5.4112 C   0  0  0  0  0  0  0  0  0  0  0  0
    4.7831    4.5929    6.8028 C   0  0  0  0  0  0  0  0  0  0  0  0
    5.0069    3.3416    7.3794 C   0  0  0  0  0  0  0  0  0  0  0  0
    5.1938    2.2274    6.5625 C   0  0  0  0  0  0  0  0  0  0  0  0
    5.1495    2.3680    5.1799 C   0  0  0  0  0  0  0  0  0  0  0  0
    5.3855    1.2841    4.4279 F   0  0  0  0  0  0  0  0  0  0  0  0
    4.4755    2.8078    1.1168 C   0  0  0  0  0  0  0  0  0  0  0  0
    3.8902    1.8849    0.2411 C   0  0  0  0  0  0  0  0  0  0  0  0
    3.7579   -0.8821   -0.8845 H   0  0  0  0  0  0  0  0  0  0  0  0
    0.7336    0.1498   -2.6371 H   0  0  0  0  0  0  0  0  0  0  0  0
   -0.5216   -1.3720   -4.1468 H   0  0  0  0  0  0  0  0  0  0  0  0
   -0.0871   -6.0498   -4.8533 H   0  0  0  0  0  0  0  0  0  0  0  0
    2.9634   -5.1048   -2.3555 H   0  0  0  0  0  0  0  0  0  0  0  0
    1.7189    0.4143    2.4236 H   0  0  0  0  0  0  0  0  0  0  0  0
    2.7103    2.0614    3.9405 H   0  0  0  0  0  0  0  0  0  0  0  0
    4.5195    5.7009    4.9733 H   0  0  0  0  0  0  0  0  0  0  0  0
    4.6699    5.4682    7.4393 H   0  0  0  0  0  0  0  0  0  0  0  0
    5.0412    3.2337    8.4593 H   0  0  0  0  0  0  0  0  0  0  0  0
    5.3766    1.2474    6.9904 H   0  0  0  0  0  0  0  0  0  0  0  0
    5.2212    3.5071    0.7466 H   0  0  0  0  0  0  0  0  0  0  0  0
    4.1700    1.8916   -0.8091 H   0  0  0  0  0  0  0  0  0  0  0  0
  1  2  2  0  0  0  0
  2  3  1  0  0  0  0
  2 16  1  0  0  0  0
  3  4  1  0  0  0  0
  3 30  1  0  0  0  0
  4  5  2  0  0  0  0
  4 15  1  0  0  0  0
  5  6  1  0  0  0  0
  5 31  1  0  0  0  0
  6  7  2  0  0  0  0
  6 32  1  0  0  0  0
  7  8  1  0  0  0  0
  7 14  1  0  0  0  0
  8  9  2  0  0  0  0
  8 10  1  0  0  0  0
 10 11  1  0  0  0  0
 10 33  1  0  0  0  0
 11 12  2  0  0  0  0
 11 13  1  0  0  0  0
 13 14  1  0  0  0  0
 13 34  1  0  0  0  0
 14 15  2  0  0  0  0
 16 17  2  0  0  0  0
 16 29  1  0  0  0  0
 17 18  1  0  0  0  0
 17 35  1  0  0  0  0
 18 19  2  0  0  0  0
 18 36  1  0  0  0  0
 19 20  1  0  0  0  0
 19 28  1  0  0  0  0
 20 21  1  0  0  0  0
 21 22  2  0  0  0  0
 21 26  1  0  0  0  0
 22 23  1  0  0  0  0
 22 37  1  0  0  0  0
 23 24  2  0  0  0  0
 23 38  1  0  0  0  0
 24 25  1  0  0  0  0
 24 39  1  0  0  0  0
 25 26  2  0  0  0  0
 25 40  1  0  0  0  0
 26 27  1  0  0  0  0
 28 29  2  0  0  0  0
 28 41  1  0  0  0  0
 29 42  1  0  0  0  0
M  END
$$$$
