
 OpenBabel01122422373D

 51 54  0  0  1  0  0  0  0  0999 V2000
    1.0048    0.1713   -0.1410 O   0  0  0  0  0  0  0  0  0  0  0  0
    2.2283    0.1299   -0.0404 C   0  0  0  0  0  0  0  0  0  0  0  0
    2.9468   -0.7333    0.9968 C   0  0  0  0  0  0  0  0  0  0  0  0
    3.2360    0.0292    2.1606 O   0  0  0  0  0  0  0  0  0  0  0  0
    3.8786   -0.6297    3.1782 C   0  0  0  0  0  0  0  0  0  0  0  0
    4.2493   -1.9779    3.1695 C   0  0  0  0  0  0  0  0  0  0  0  0
    4.9018   -2.5378    4.2707 C   0  0  0  0  0  0  0  0  0  0  0  0
    5.1993   -1.7523    5.3803 C   0  0  0  0  0  0  0  0  0  0  0  0
    4.8813   -0.3925    5.3774 C   0  0  0  0  0  0  0  0  0  0  0  0
    5.1721    0.4460    6.4326 O   0  0  0  0  0  0  0  0  0  0  0  0
    6.4263    0.3259    7.0275 C   0  0  0  0  0  0  0  0  0  0  0  0
    6.5437    0.7893    8.3295 C   0  0  0  0  0  0  0  0  0  0  0  0
    7.7743    0.6540    8.9686 C   0  0  0  0  0  0  0  0  0  0  0  0
    8.8380    0.0724    8.2861 C   0  0  0  0  0  0  0  0  0  0  0  0
    8.6339   -0.3350    6.9788 C   0  0  0  0  0  0  0  0  0  0  0  0
    7.4582   -0.2083    6.3319 N   0  0  0  0  0  0  0  0  0  0  0  0
    4.1849    0.1553    4.2959 C   0  0  0  0  0  0  0  0  0  0  0  0
    3.0693    0.8200   -0.8920 N   0  0  0  0  0  0  0  0  0  0  0  0
    2.5474    1.6620   -1.9732 C   0  0  3  0  0  0  0  0  0  0  0  0
    3.5494    1.7454   -3.1197 C   0  0  0  0  0  0  0  0  0  0  0  0
    4.4026    2.9340   -2.7387 C   0  0  0  0  0  0  0  0  0  0  0  0
    5.4683    3.2056   -3.2745 O   0  0  0  0  0  0  0  0  0  0  0  0
    3.6941    3.6770   -1.7974 N   0  0  0  0  0  0  0  0  0  0  0  0
    4.0866    4.9700   -1.3805 C   0  0  0  0  0  0  0  0  0  0  0  0
    3.2095    6.0585   -1.4300 C   0  0  0  0  0  0  0  0  0  0  0  0
    1.9738    5.9182   -1.9327 F   0  0  0  0  0  0  0  0  0  0  0  0
    3.6106    7.3343   -1.0296 C   0  0  0  0  0  0  0  0  0  0  0  0
    4.8958    7.5349   -0.5293 C   0  0  0  0  0  0  0  0  0  0  0  0
    5.7779    6.4582   -0.4517 C   0  0  0  0  0  0  0  0  0  0  0  0
    5.3776    5.1951   -0.8899 C   0  0  0  0  0  0  0  0  0  0  0  0
    6.2343    4.1728   -0.7359 F   0  0  0  0  0  0  0  0  0  0  0  0
    2.3797    3.1283   -1.5646 C   0  0  0  0  0  0  0  0  0  0  0  0
    3.8740   -1.1091    0.5449 H   0  0  0  0  0  0  0  0  0  0  0  0
    2.2887   -1.5798    1.2281 H   0  0  0  0  0  0  0  0  0  0  0  0
    4.0476   -2.6279    2.3254 H   0  0  0  0  0  0  0  0  0  0  0  0
    5.1918   -3.5852    4.2608 H   0  0  0  0  0  0  0  0  0  0  0  0
    5.7084   -2.2006    6.2292 H   0  0  0  0  0  0  0  0  0  0  0  0
    5.6954    1.2316    8.8388 H   0  0  0  0  0  0  0  0  0  0  0  0
    7.9011    0.9927    9.9930 H   0  0  0  0  0  0  0  0  0  0  0  0
    9.8041   -0.0610    8.7600 H   0  0  0  0  0  0  0  0  0  0  0  0
    9.4303   -0.7956    6.4018 H   0  0  0  0  0  0  0  0  0  0  0  0
    3.8966    1.2027    4.3156 H   0  0  0  0  0  0  0  0  0  0  0  0
    4.0342    0.9444   -0.5993 H   0  0  0  0  0  0  0  0  0  0  0  0
    1.5938    1.2388   -2.3061 H   0  0  0  0  0  0  0  0  0  0  0  0
    3.0470    1.9791   -4.0652 H   0  0  0  0  0  0  0  0  0  0  0  0
    4.1580    0.8433   -3.2275 H   0  0  0  0  0  0  0  0  0  0  0  0
    2.9161    8.1651   -1.1183 H   0  0  0  0  0  0  0  0  0  0  0  0
    5.2074    8.5229   -0.1993 H   0  0  0  0  0  0  0  0  0  0  0  0
    6.7757    6.5878   -0.0416 H   0  0  0  0  0  0  0  0  0  0  0  0
    1.6598    3.6239   -2.2214 H   0  0  0  0  0  0  0  0  0  0  0  0
    2.0923    3.2503   -0.5154 H   0  0  0  0  0  0  0  0  0  0  0  0
  1  2  2  0  0  0  0
  2  3  1  0  0  0  0
  2 18  1  0  0  0  0
  3  4  1  0  0  0  0
  3 33  1  0  0  0  0
  3 34  1  0  0  0  0
  4  5  1  0  0  0  0
  5  6  2  0  0  0  0
  5 17  1  0  0  0  0
  6  7  1  0  0  0  0
  6 35  1  0  0  0  0
  7  8  2  0  0  0  0
  7 36  1  0  0  0  0
  8  9  1  0  0  0  0
  8 37  1  0  0  0  0
  9 10  1  0  0  0  0
  9 17  2  0  0  0  0
 10 11  1  0  0  0  0
 11 12  2  0  0  0  0
 11 16  1  0  0  0  0
 12 13  1  0  0  0  0
 12 38  1  0  0  0  0
 13 14  2  0  0  0  0
 13 39  1  0  0  0  0
 14 15  1  0  0  0  0
 14 40  1  0  0  0  0
 15 16  2  0  0  0  0
 15 41  1  0  0  0  0
 17 42  1  0  0  0  0
 18 19  1  0  0  0  0
 18 43  1  0  0  0  0
 19 20  1  0  0  0  0
 19 32  1  0  0  0  0
 19 44  1  0  0  0  0
 20 21  1  0  0  0  0
 20 45  1  0  0  0  0
 20 46  1  0  0  0  0
 21 22  2  0  0  0  0
 21 23  1  0  0  0  0
 23 24  1  0  0  0  0
 23 32  1  0  0  0  0
 24 25  2  0  0  0  0
 24 30  1  0  0  0  0
 25 26  1  0  0  0  0
 25 27  1  0  0  0  0
 27 28  2  0  0  0  0
 27 47  1  0  0  0  0
 28 29  1  0  0  0  0
 28 48  1  0  0  0  0
 29 30  2  0  0  0  0
 29 49  1  0  0  0  0
 30 31  1  0  0  0  0
 32 50  1  0  0  0  0
 32 51  1  0  0  0  0
M  END
$$$$
