
 OpenBabel01122422373D

 43 46  0  0  0  0  0  0  0  0999 V2000
    0.9610   -0.0224   -0.2322 O   0  0  0  0  0  0  0  0  0  0  0  0
    2.1282   -0.0253    0.0988 C   0  0  0  0  0  0  0  0  0  0  0  0
    2.7863   -1.0329    0.7996 N   0  0  0  0  0  0  0  0  0  0  0  0
    2.1868   -2.2114    1.2092 C   0  0  0  0  0  0  0  0  0  0  0  0
    1.1412   -2.7610    0.5740 C   0  0  0  0  0  0  0  0  0  0  0  0
    0.5417   -4.0136    1.0096 C   0  0  0  0  0  0  0  0  0  0  0  0
   -0.6045   -4.5904    0.2998 C   0  0  0  0  0  0  0  0  0  0  0  0
   -1.9078   -4.2735    0.6859 C   0  0  0  0  0  0  0  0  0  0  0  0
   -2.9542   -4.8528   -0.0101 C   0  0  0  0  0  0  0  0  0  0  0  0
   -2.7859   -5.7011   -1.0474 N   0  0  0  0  0  0  0  0  0  0  0  0
   -1.5148   -5.9691   -1.4167 C   0  0  0  0  0  0  0  0  0  0  0  0
   -0.4024   -5.4408   -0.7863 C   0  0  0  0  0  0  0  0  0  0  0  0
    1.0571   -4.6371    2.0678 C   0  0  0  0  0  0  0  0  0  0  0  0
    2.1131   -4.1083    2.7638 N   0  0  0  0  0  0  0  0  0  0  0  0
    2.7200   -2.9040    2.4345 C   0  0  0  0  0  0  0  0  0  0  0  0
    3.6226   -2.4155    3.1081 O   0  0  0  0  0  0  0  0  0  0  0  0
    2.9345    1.1870   -0.1299 C   0  0  0  0  0  0  0  0  0  0  0  0
    4.2419    1.0073   -0.5201 C   0  0  0  0  0  0  0  0  0  0  0  0
    5.1017    2.0704   -0.3991 C   0  0  0  0  0  0  0  0  0  0  0  0
    6.4264    1.8510   -0.7065 C   0  0  0  0  0  0  0  0  0  0  0  0
    7.2503    2.1691    0.3393 C   0  0  0  0  0  0  0  0  0  0  0  0
    6.9817    3.3439    1.0385 C   0  0  0  0  0  0  0  0  0  0  0  0
    5.7150    3.9417    0.8949 C   0  0  0  0  0  0  0  0  0  0  0  0
    4.6854    3.2322    0.2660 C   0  0  0  0  0  0  0  0  0  0  0  0
    3.3618    3.4831    0.4223 N   0  0  0  0  0  0  0  0  0  0  0  0
    2.4729    2.4636    0.1720 C   0  0  0  0  0  0  0  0  0  0  0  0
    0.9765    2.7550    0.1909 C   0  0  0  0  0  0  0  0  0  0  0  0
    0.6818    4.0628    0.4611 F   0  0  0  0  0  0  0  0  0  0  0  0
    0.3855    2.5110   -1.0151 F   0  0  0  0  0  0  0  0  0  0  0  0
    3.6909   -0.8542    1.2217 H   0  0  0  0  0  0  0  0  0  0  0  0
    0.7324   -2.3229   -0.3226 H   0  0  0  0  0  0  0  0  0  0  0  0
   -2.1063   -3.5877    1.5024 H   0  0  0  0  0  0  0  0  0  0  0  0
   -3.9862   -4.6427    0.2556 H   0  0  0  0  0  0  0  0  0  0  0  0
   -1.4098   -6.6430   -2.2617 H   0  0  0  0  0  0  0  0  0  0  0  0
    0.5943   -5.6832   -1.1373 H   0  0  0  0  0  0  0  0  0  0  0  0
    0.6612   -5.5819    2.4388 H   0  0  0  0  0  0  0  0  0  0  0  0
    2.4723   -4.5761    3.5798 H   0  0  0  0  0  0  0  0  0  0  0  0
    4.6220    0.0328   -0.8236 H   0  0  0  0  0  0  0  0  0  0  0  0
    6.6813    2.4979   -1.5865 H   0  0  0  0  0  0  0  0  0  0  0  0
    7.8650    1.3919    0.7912 H   0  0  0  0  0  0  0  0  0  0  0  0
    7.6776    3.6866    1.7898 H   0  0  0  0  0  0  0  0  0  0  0  0
    5.4858    4.8313    1.4718 H   0  0  0  0  0  0  0  0  0  0  0  0
    0.4677    2.1568    0.9524 H   0  0  0  0  0  0  0  0  0  0  0  0
  1  2  2  0  0  0  0
  2  3  1  0  0  0  0
  2 17  1  0  0  0  0
  3  4  1  0  0  0  0
  3 30  1  0  0  0  0
  4  5  2  0  0  0  0
  4 15  1  0  0  0  0
  5  6  1  0  0  0  0
  5 31  1  0  0  0  0
  6  7  1  0  0  0  0
  6 13  2  0  0  0  0
  7  8  2  0  0  0  0
  7 12  1  0  0  0  0
  8  9  1  0  0  0  0
  8 32  1  0  0  0  0
  9 10  2  0  0  0  0
  9 33  1  0  0  0  0
 10 11  1  0  0  0  0
 11 12  2  0  0  0  0
 11 34  1  0  0  0  0
 12 35  1  0  0  0  0
 13 14  1  0  0  0  0
 13 36  1  0  0  0  0
 14 15  1  0  0  0  0
 14 37  1  0  0  0  0
 15 16  2  0  0  0  0
 17 18  2  0  0  0  0
 17 26  1  0  0  0  0
 18 19  1  0  0  0  0
 18 38  1  0  0  0  0
 19 20  2  0  0  0  0
 19 24  1  0  0  0  0
 20 21  1  0  0  0  0
 20 39  1  0  0  0  0
 21 22  2  0  0  0  0
 21 40  1  0  0  0  0
 22 23  1  0  0  0  0
 22 41  1  0  0  0  0
 23 24  2  0  0  0  0
 23 42  1  0  0  0  0
 24 25  1  0  0  0  0
 25 26  2  0  0  0  0
 26 27  1  0  0  0  0
 27 28  1  0  0  0  0
 27 29  1  0  0  0  0
 27 43  1  0  0  0  0
M  END
$$$$
