
 OpenBabel01122422373D

 42 45  0  0  0  0  0  0  0  0999 V2000
    1.1353   -0.5452   -0.5918 O   0  0  0  0  0  0  0  0  0  0  0  0
    2.2325   -0.2505   -0.1410 C   0  0  0  0  0  0  0  0  0  0  0  0
    2.8338   -0.8191    0.9726 N   0  0  0  0  0  0  0  0  0  0  0  0
    2.1822   -1.7789    1.7714 C   0  0  0  0  0  0  0  0  0  0  0  0
    1.3112   -2.7371    1.2959 C   0  0  0  0  0  0  0  0  0  0  0  0
    0.6257   -3.5847    2.0928 N   0  0  0  0  0  0  0  0  0  0  0  0
    0.8024   -3.4475    3.4219 C   0  0  0  0  0  0  0  0  0  0  0  0
   -0.0601   -4.2466    4.3117 C   0  0  0  0  0  0  0  0  0  0  0  0
   -0.9693   -5.1869    3.7935 C   0  0  0  0  0  0  0  0  0  0  0  0
   -1.8001   -5.9179    4.6374 C   0  0  0  0  0  0  0  0  0  0  0  0
   -2.6564   -6.8038    4.1117 F   0  0  0  0  0  0  0  0  0  0  0  0
   -1.7611   -5.7411    6.0131 C   0  0  0  0  0  0  0  0  0  0  0  0
   -0.8746   -4.8168    6.5554 C   0  0  0  0  0  0  0  0  0  0  0  0
   -0.0344   -4.0798    5.7124 C   0  0  0  0  0  0  0  0  0  0  0  0
    1.6718   -2.5821    3.9845 N   0  0  0  0  0  0  0  0  0  0  0  0
    2.3530   -1.7804    3.1401 C   0  0  0  0  0  0  0  0  0  0  0  0
    3.0094    0.8453   -0.7515 C   0  0  0  0  0  0  0  0  0  0  0  0
    4.3064    0.5380   -1.1904 C   0  0  0  0  0  0  0  0  0  0  0  0
    5.0620    1.5183   -1.8257 C   0  0  0  0  0  0  0  0  0  0  0  0
    4.4935    2.7576   -2.0065 C   0  0  0  0  0  0  0  0  0  0  0  0
    3.2499    3.0807   -1.5855 N   0  0  0  0  0  0  0  0  0  0  0  0
    2.4916    2.1345   -0.9545 C   0  0  0  0  0  0  0  0  0  0  0  0
    1.1748    2.6537   -0.5023 C   0  0  0  0  0  0  0  0  0  0  0  0
    0.5004    3.6248   -1.2648 C   0  0  0  0  0  0  0  0  0  0  0  0
   -0.7066    4.1428   -0.8175 C   0  0  0  0  0  0  0  0  0  0  0  0
   -1.2989    3.7704    0.3326 N   0  0  0  0  0  0  0  0  0  0  0  0
   -0.6510    2.8420    1.0632 C   0  0  0  0  0  0  0  0  0  0  0  0
    0.5677    2.2784    0.7041 C   0  0  0  0  0  0  0  0  0  0  0  0
    3.6164   -0.3229    1.3845 H   0  0  0  0  0  0  0  0  0  0  0  0
    1.1349   -2.8773    0.2330 H   0  0  0  0  0  0  0  0  0  0  0  0
   -1.0459   -5.3543    2.7215 H   0  0  0  0  0  0  0  0  0  0  0  0
   -2.4224   -6.3203    6.6487 H   0  0  0  0  0  0  0  0  0  0  0  0
   -0.8363   -4.6624    7.6306 H   0  0  0  0  0  0  0  0  0  0  0  0
    0.6448   -3.3548    6.1600 H   0  0  0  0  0  0  0  0  0  0  0  0
    3.0089   -1.0679    3.6310 H   0  0  0  0  0  0  0  0  0  0  0  0
    4.7072   -0.4692   -1.0771 H   0  0  0  0  0  0  0  0  0  0  0  0
    6.0628    1.3034   -2.1865 H   0  0  0  0  0  0  0  0  0  0  0  0
    5.0299    3.5541   -2.5135 H   0  0  0  0  0  0  0  0  0  0  0  0
    0.9171    3.9873   -2.2007 H   0  0  0  0  0  0  0  0  0  0  0  0
   -1.2382    4.8971   -1.3910 H   0  0  0  0  0  0  0  0  0  0  0  0
   -1.1469    2.5536    1.9859 H   0  0  0  0  0  0  0  0  0  0  0  0
    1.0149    1.5648    1.3784 H   0  0  0  0  0  0  0  0  0  0  0  0
  1  2  2  0  0  0  0
  2  3  1  0  0  0  0
  2 17  1  0  0  0  0
  3  4  1  0  0  0  0
  3 29  1  0  0  0  0
  4  5  2  0  0  0  0
  4 16  1  0  0  0  0
  5  6  1  0  0  0  0
  5 30  1  0  0  0  0
  6  7  2  0  0  0  0
  7  8  1  0  0  0  0
  7 15  1  0  0  0  0
  8  9  2  0  0  0  0
  8 14  1  0  0  0  0
  9 10  1  0  0  0  0
  9 31  1  0  0  0  0
 10 11  1  0  0  0  0
 10 12  2  0  0  0  0
 12 13  1  0  0  0  0
 12 32  1  0  0  0  0
 13 14  2  0  0  0  0
 13 33  1  0  0  0  0
 14 34  1  0  0  0  0
 15 16  2  0  0  0  0
 16 35  1  0  0  0  0
 17 18  2  0  0  0  0
 17 22  1  0  0  0  0
 18 19  1  0  0  0  0
 18 36  1  0  0  0  0
 19 20  2  0  0  0  0
 19 37  1  0  0  0  0
 20 21  1  0  0  0  0
 20 38  1  0  0  0  0
 21 22  2  0  0  0  0
 22 23  1  0  0  0  0
 23 24  2  0  0  0  0
 23 28  1  0  0  0  0
 24 25  1  0  0  0  0
 24 39  1  0  0  0  0
 25 26  2  0  0  0  0
 25 40  1  0  0  0  0
 26 27  1  0  0  0  0
 27 28  2  0  0  0  0
 27 41  1  0  0  0  0
 28 42  1  0  0  0  0
M  END
$$$$
