
 OpenBabel01122422373D

 40 43  0  0  0  0  0  0  0  0999 V2000
    0.8764    0.0469   -0.1658 O   0  0  0  0  0  0  0  0  0  0  0  0
    2.0871    0.1020    0.0432 C   0  0  0  0  0  0  0  0  0  0  0  0
    2.8109   -0.6638    0.9378 N   0  0  0  0  0  0  0  0  0  0  0  0
    2.2087   -1.6245    1.7648 C   0  0  0  0  0  0  0  0  0  0  0  0
    0.8853   -1.8220    1.6561 N   0  0  0  0  0  0  0  0  0  0  0  0
    0.2630   -2.7091    2.4293 C   0  0  0  0  0  0  0  0  0  0  0  0
   -1.0985   -2.8812    2.2555 C   0  0  0  0  0  0  0  0  0  0  0  0
   -1.8280   -3.7889    3.0256 C   0  0  0  0  0  0  0  0  0  0  0  0
   -1.1914   -4.5101    4.0285 C   0  0  0  0  0  0  0  0  0  0  0  0
   -1.7861   -5.3989    4.8677 O   0  0  0  0  0  0  0  0  0  0  0  0
   -3.1516   -5.2251    5.2308 C   0  0  0  0  0  0  0  0  0  0  0  0
   -3.6945   -4.0562    4.8325 F   0  0  0  0  0  0  0  0  0  0  0  0
   -3.8826   -6.2403    4.7219 F   0  0  0  0  0  0  0  0  0  0  0  0
   -3.2420   -5.2780    6.5793 F   0  0  0  0  0  0  0  0  0  0  0  0
    0.1963   -4.3738    4.1865 C   0  0  0  0  0  0  0  0  0  0  0  0
    0.9354   -3.4717    3.3910 C   0  0  0  0  0  0  0  0  0  0  0  0
    2.3250   -3.2745    3.4965 C   0  0  0  0  0  0  0  0  0  0  0  0
    2.9705   -2.3434    2.6736 C   0  0  0  0  0  0  0  0  0  0  0  0
    2.9147    1.0971   -0.7319 C   0  0  0  0  0  0  0  0  0  0  0  0
    2.1913    1.9430   -1.4718 C   0  0  0  0  0  0  0  0  0  0  0  0
    2.8793    2.9163   -2.3139 C   0  0  0  0  0  0  0  0  0  0  0  0
    2.2101    3.7141   -2.9705 O   0  0  0  0  0  0  0  0  0  0  0  0
    4.2598    2.8374   -2.3027 N   0  0  0  0  0  0  0  0  0  0  0  0
    4.9793    3.6893   -3.1310 C   0  0  0  0  0  0  0  0  0  0  0  0
    6.3136    3.6681   -3.1793 C   0  0  0  0  0  0  0  0  0  0  0  0
    7.0401    2.7470   -2.3452 C   0  0  0  0  0  0  0  0  0  0  0  0
    6.3938    1.9165   -1.5198 C   0  0  0  0  0  0  0  0  0  0  0  0
    4.9021    1.9183   -1.4723 C   0  0  0  0  0  0  0  0  0  0  0  0
    4.2925    1.0782   -0.6843 N   0  0  0  0  0  0  0  0  0  0  0  0
    3.8058   -0.4974    0.9946 H   0  0  0  0  0  0  0  0  0  0  0  0
   -1.6024   -2.2902    1.4924 H   0  0  0  0  0  0  0  0  0  0  0  0
   -2.8852   -3.8986    2.8036 H   0  0  0  0  0  0  0  0  0  0  0  0
    0.7030   -4.9692    4.9435 H   0  0  0  0  0  0  0  0  0  0  0  0
    2.9051   -3.8458    4.2196 H   0  0  0  0  0  0  0  0  0  0  0  0
    4.0407   -2.1934    2.7610 H   0  0  0  0  0  0  0  0  0  0  0  0
    1.1086    1.9465   -1.5106 H   0  0  0  0  0  0  0  0  0  0  0  0
    4.4048    4.3783   -3.7512 H   0  0  0  0  0  0  0  0  0  0  0  0
    6.8618    4.3335   -3.8389 H   0  0  0  0  0  0  0  0  0  0  0  0
    8.1248    2.7514   -2.4049 H   0  0  0  0  0  0  0  0  0  0  0  0
    6.9134    1.2144   -0.8799 H   0  0  0  0  0  0  0  0  0  0  0  0
  1  2  2  0  0  0  0
  2  3  1  0  0  0  0
  2 19  1  0  0  0  0
  3  4  1  0  0  0  0
  3 30  1  0  0  0  0
  4  5  2  0  0  0  0
  4 18  1  0  0  0  0
  5  6  1  0  0  0  0
  6  7  2  0  0  0  0
  6 16  1  0  0  0  0
  7  8  1  0  0  0  0
  7 31  1  0  0  0  0
  8  9  2  0  0  0  0
  8 32  1  0  0  0  0
  9 10  1  0  0  0  0
  9 15  1  0  0  0  0
 10 11  1  0  0  0  0
 11 12  1  0  0  0  0
 11 13  1  0  0  0  0
 11 14  1  0  0  0  0
 15 16  2  0  0  0  0
 15 33  1  0  0  0  0
 16 17  1  0  0  0  0
 17 18  2  0  0  0  0
 17 34  1  0  0  0  0
 18 35  1  0  0  0  0
 19 20  2  0  0  0  0
 19 29  1  0  0  0  0
 20 21  1  0  0  0  0
 20 36  1  0  0  0  0
 21 22  2  0  0  0  0
 21 23  1  0  0  0  0
 23 24  1  0  0  0  0
 23 28  1  0  0  0  0
 24 25  2  0  0  0  0
 24 37  1  0  0  0  0
 25 26  1  0  0  0  0
 25 38  1  0  0  0  0
 26 27  2  0  0  0  0
 26 39  1  0  0  0  0
 27 28  1  0  0  0  0
 27 40  1  0  0  0  0
 28 29  2  0  0  0  0
M  END
$$$$
