
 OpenBabel01122422373D

 51 54  0  0  0  0  0  0  0  0999 V2000
    2.7970    0.8856   -0.5394 O   0  0  0  0  0  0  0  0  0  0  0  0
    2.2988   -0.0597    0.0606 C   0  0  0  0  0  0  0  0  0  0  0  0
    0.7997   -0.2212    0.2101 C   0  0  0  0  0  0  0  0  0  0  0  0
    0.1352   -0.3371   -1.1551 C   0  0  0  0  0  0  0  0  0  0  0  0
    0.4871   -1.5936   -1.8896 C   0  0  0  0  0  0  0  0  0  0  0  0
    1.3427   -2.5060   -1.4610 N   0  0  0  0  0  0  0  0  0  0  0  0
    1.3304   -3.5601   -2.3292 N   0  0  0  0  0  0  0  0  0  0  0  0
    0.4537   -3.2846   -3.2636 C   0  0  0  0  0  0  0  0  0  0  0  0
   -0.1202   -2.0549   -3.0526 N   0  0  0  0  0  0  0  0  0  0  0  0
   -1.1541   -1.4697   -3.8328 C   0  0  0  0  0  0  0  0  0  0  0  0
   -2.0518   -2.2981   -4.5239 C   0  0  0  0  0  0  0  0  0  0  0  0
   -3.1394   -1.7412   -5.2023 C   0  0  0  0  0  0  0  0  0  0  0  0
   -3.3270   -0.3613   -5.2159 C   0  0  0  0  0  0  0  0  0  0  0  0
   -2.4096    0.4686   -4.5803 C   0  0  0  0  0  0  0  0  0  0  0  0
   -1.3214   -0.0816   -3.9012 C   0  0  0  0  0  0  0  0  0  0  0  0
    3.0149   -1.0502    0.6745 N   0  0  0  0  0  0  0  0  0  0  0  0
    4.4566   -1.1205    0.6320 C   0  0  0  0  0  0  0  0  0  0  0  0
    5.0243   -0.9960    2.0246 C   0  0  0  0  0  0  0  0  0  0  0  0
    5.3080    0.2632    2.5449 C   0  0  0  0  0  0  0  0  0  0  0  0
    5.8355    0.3484    3.8300 C   0  0  0  0  0  0  0  0  0  0  0  0
    6.1711    1.5289    4.4518 O   0  0  0  0  0  0  0  0  0  0  0  0
    6.6945    2.5647    3.7108 C   0  0  0  0  0  0  0  0  0  0  0  0
    7.5600    2.3972    2.6285 C   0  0  0  0  0  0  0  0  0  0  0  0
    8.0270    3.5178    1.9511 C   0  0  0  0  0  0  0  0  0  0  0  0
    8.8225    3.3571    0.8855 F   0  0  0  0  0  0  0  0  0  0  0  0
    7.6840    4.8022    2.3594 C   0  0  0  0  0  0  0  0  0  0  0  0
    6.8610    4.9725    3.4710 C   0  0  0  0  0  0  0  0  0  0  0  0
    6.3687    3.8534    4.1467 C   0  0  0  0  0  0  0  0  0  0  0  0
    5.9755   -0.8063    4.5910 C   0  0  0  0  0  0  0  0  0  0  0  0
    5.6309   -2.0134    4.0129 C   0  0  0  0  0  0  0  0  0  0  0  0
    5.1698   -2.1350    2.7499 N   0  0  0  0  0  0  0  0  0  0  0  0
    0.4339    0.6754    0.7242 H   0  0  0  0  0  0  0  0  0  0  0  0
    0.5508   -1.0781    0.8445 H   0  0  0  0  0  0  0  0  0  0  0  0
    0.4315    0.5318   -1.7483 H   0  0  0  0  0  0  0  0  0  0  0  0
   -0.9507   -0.3027   -1.0090 H   0  0  0  0  0  0  0  0  0  0  0  0
    0.2337   -3.9168   -4.1136 H   0  0  0  0  0  0  0  0  0  0  0  0
   -1.9685   -3.3821   -4.5053 H   0  0  0  0  0  0  0  0  0  0  0  0
   -3.8536   -2.3879   -5.7061 H   0  0  0  0  0  0  0  0  0  0  0  0
   -4.1838    0.0692   -5.7283 H   0  0  0  0  0  0  0  0  0  0  0  0
   -2.5368    1.5486   -4.6131 H   0  0  0  0  0  0  0  0  0  0  0  0
   -0.6038    0.6120   -3.4802 H   0  0  0  0  0  0  0  0  0  0  0  0
    2.5399   -1.8712    1.0260 H   0  0  0  0  0  0  0  0  0  0  0  0
    4.8749   -0.3526   -0.0277 H   0  0  0  0  0  0  0  0  0  0  0  0
    4.7202   -2.0966    0.2111 H   0  0  0  0  0  0  0  0  0  0  0  0
    5.1174    1.1480    1.9463 H   0  0  0  0  0  0  0  0  0  0  0  0
    7.8735    1.4153    2.2919 H   0  0  0  0  0  0  0  0  0  0  0  0
    8.0664    5.6588    1.8135 H   0  0  0  0  0  0  0  0  0  0  0  0
    6.6009    5.9719    3.8097 H   0  0  0  0  0  0  0  0  0  0  0  0
    5.7257    3.9854    5.0138 H   0  0  0  0  0  0  0  0  0  0  0  0
    6.3414   -0.7653    5.6102 H   0  0  0  0  0  0  0  0  0  0  0  0
    5.7163   -2.9445    4.5656 H   0  0  0  0  0  0  0  0  0  0  0  0
  1  2  2  0  0  0  0
  2  3  1  0  0  0  0
  2 16  1  0  0  0  0
  3  4  1  0  0  0  0
  3 32  1  0  0  0  0
  3 33  1  0  0  0  0
  4  5  1  0  0  0  0
  4 34  1  0  0  0  0
  4 35  1  0  0  0  0
  5  6  2  0  0  0  0
  5  9  1  0  0  0  0
  6  7  1  0  0  0  0
  7  8  2  0  0  0  0
  8  9  1  0  0  0  0
  8 36  1  0  0  0  0
  9 10  1  0  0  0  0
 10 11  2  0  0  0  0
 10 15  1  0  0  0  0
 11 12  1  0  0  0  0
 11 37  1  0  0  0  0
 12 13  2  0  0  0  0
 12 38  1  0  0  0  0
 13 14  1  0  0  0  0
 13 39  1  0  0  0  0
 14 15  2  0  0  0  0
 14 40  1  0  0  0  0
 15 41  1  0  0  0  0
 16 17  1  0  0  0  0
 16 42  1  0  0  0  0
 17 18  1  0  0  0  0
 17 43  1  0  0  0  0
 17 44  1  0  0  0  0
 18 19  2  0  0  0  0
 18 31  1  0  0  0  0
 19 20  1  0  0  0  0
 19 45  1  0  0  0  0
 20 21  1  0  0  0  0
 20 29  2  0  0  0  0
 21 22  1  0  0  0  0
 22 23  2  0  0  0  0
 22 28  1  0  0  0  0
 23 24  1  0  0  0  0
 23 46  1  0  0  0  0
 24 25  1  0  0  0  0
 24 26  2  0  0  0  0
 26 27  1  0  0  0  0
 26 47  1  0  0  0  0
 27 28  2  0  0  0  0
 27 48  1  0  0  0  0
 28 49  1  0  0  0  0
 29 30  1  0  0  0  0
 29 50  1  0  0  0  0
 30 31  2  0  0  0  0
 30 51  1  0  0  0  0
M  END
$$$$
