
 OpenBabel01122422373D

 50 53  0  0  0  0  0  0  0  0999 V2000
    1.7246   -2.4428   -2.7275 C   0  0  0  0  0  0  0  0  0  0  0  0
    0.3343   -2.0693   -2.3074 C   0  0  0  0  0  0  0  0  0  0  0  0
   -0.0034   -1.9692   -0.9625 C   0  0  0  0  0  0  0  0  0  0  0  0
   -1.3109   -1.6245   -0.6100 C   0  0  0  0  0  0  0  0  0  0  0  0
   -2.2562   -1.3861   -1.6043 C   0  0  0  0  0  0  0  0  0  0  0  0
   -3.5699   -1.0517   -1.4168 O   0  0  0  0  0  0  0  0  0  0  0  0
   -4.0000   -0.9356   -0.0622 C   0  0  0  0  0  0  0  0  0  0  0  0
   -5.4699   -0.5910   -0.0021 C   0  0  0  0  0  0  0  0  0  0  0  0
   -6.4468   -1.5951    0.0023 C   0  0  0  0  0  0  0  0  0  0  0  0
   -7.8035   -1.2707    0.1125 C   0  0  0  0  0  0  0  0  0  0  0  0
   -8.2050    0.0625    0.2302 C   0  0  0  0  0  0  0  0  0  0  0  0
   -7.2403    1.0736    0.2256 C   0  0  0  0  0  0  0  0  0  0  0  0
   -7.5860    2.5124    0.3579 C   0  0  0  0  0  0  0  0  0  0  0  0
   -6.8817    3.3179   -0.2432 O   0  0  0  0  0  0  0  0  0  0  0  0
   -8.6222    2.8187    1.2308 N   0  0  0  0  0  0  0  0  0  0  0  0
   -9.0447    4.1278    1.5621 C   0  0  0  0  0  0  0  0  0  0  0  0
   -8.7008    5.2477    0.8069 C   0  0  0  0  0  0  0  0  0  0  0  0
   -9.0989    6.5300    1.1992 C   0  0  0  0  0  0  0  0  0  0  0  0
   -9.8591    6.7263    2.3553 C   0  0  0  0  0  0  0  0  0  0  0  0
  -10.2265    8.0809    2.7632 C   0  0  0  0  0  0  0  0  0  0  0  0
  -10.4615    9.1540    1.9850 C   0  0  0  0  0  0  0  0  0  0  0  0
  -10.7391   10.2299    2.7884 N   0  0  0  0  0  0  0  0  0  0  0  0
  -10.6747    9.8330    4.1275 C   0  0  0  0  0  0  0  0  0  0  0  0
  -10.8445   10.5202    5.1176 O   0  0  0  0  0  0  0  0  0  0  0  0
  -10.3614    8.4705    4.0745 N   0  0  0  0  0  0  0  0  0  0  0  0
  -10.2225    5.5986    3.1049 C   0  0  0  0  0  0  0  0  0  0  0  0
   -9.8323    4.3097    2.7045 C   0  0  0  0  0  0  0  0  0  0  0  0
   -5.8823    0.7451    0.0802 C   0  0  0  0  0  0  0  0  0  0  0  0
   -1.8246   -1.5037   -2.9202 C   0  0  0  0  0  0  0  0  0  0  0  0
   -0.5629   -1.8395   -3.2937 N   0  0  0  0  0  0  0  0  0  0  0  0
    2.3769   -2.6143   -1.8651 H   0  0  0  0  0  0  0  0  0  0  0  0
    2.1621   -1.6410   -3.3301 H   0  0  0  0  0  0  0  0  0  0  0  0
    1.6997   -3.3614   -3.3217 H   0  0  0  0  0  0  0  0  0  0  0  0
    0.7352   -2.1561   -0.1888 H   0  0  0  0  0  0  0  0  0  0  0  0
   -1.5483   -1.5540    0.4451 H   0  0  0  0  0  0  0  0  0  0  0  0
   -3.4303   -0.1492    0.4499 H   0  0  0  0  0  0  0  0  0  0  0  0
   -3.8449   -1.8824    0.4704 H   0  0  0  0  0  0  0  0  0  0  0  0
   -6.1541   -2.6405   -0.0771 H   0  0  0  0  0  0  0  0  0  0  0  0
   -8.5475   -2.0644    0.1044 H   0  0  0  0  0  0  0  0  0  0  0  0
   -9.2644    0.2950    0.2900 H   0  0  0  0  0  0  0  0  0  0  0  0
   -8.9927    2.0679    1.7983 H   0  0  0  0  0  0  0  0  0  0  0  0
   -8.1201    5.1658   -0.1052 H   0  0  0  0  0  0  0  0  0  0  0  0
   -8.7795    7.3710    0.5877 H   0  0  0  0  0  0  0  0  0  0  0  0
  -10.4443    9.2389    0.9096 H   0  0  0  0  0  0  0  0  0  0  0  0
  -10.9368   11.1744    2.4944 H   0  0  0  0  0  0  0  0  0  0  0  0
  -10.2031    7.9068    4.8933 H   0  0  0  0  0  0  0  0  0  0  0  0
  -10.8192    5.7079    4.0078 H   0  0  0  0  0  0  0  0  0  0  0  0
  -10.1275    3.4639    3.3195 H   0  0  0  0  0  0  0  0  0  0  0  0
   -5.1418    1.5443    0.0503 H   0  0  0  0  0  0  0  0  0  0  0  0
   -2.5092   -1.3245   -3.7448 H   0  0  0  0  0  0  0  0  0  0  0  0
  1  2  1  0  0  0  0
  1 31  1  0  0  0  0
  1 32  1  0  0  0  0
  1 33  1  0  0  0  0
  2  3  2  0  0  0  0
  2 30  1  0  0  0  0
  3  4  1  0  0  0  0
  3 34  1  0  0  0  0
  4  5  2  0  0  0  0
  4 35  1  0  0  0  0
  5  6  1  0  0  0  0
  5 29  1  0  0  0  0
  6  7  1  0  0  0  0
  7  8  1  0  0  0  0
  7 36  1  0  0  0  0
  7 37  1  0  0  0  0
  8  9  2  0  0  0  0
  8 28  1  0  0  0  0
  9 10  1  0  0  0  0
  9 38  1  0  0  0  0
 10 11  2  0  0  0  0
 10 39  1  0  0  0  0
 11 12  1  0  0  0  0
 11 40  1  0  0  0  0
 12 13  1  0  0  0  0
 12 28  2  0  0  0  0
 13 14  2  0  0  0  0
 13 15  1  0  0  0  0
 15 16  1  0  0  0  0
 15 41  1  0  0  0  0
 16 17  2  0  0  0  0
 16 27  1  0  0  0  0
 17 18  1  0  0  0  0
 17 42  1  0  0  0  0
 18 19  2  0  0  0  0
 18 43  1  0  0  0  0
 19 20  1  0  0  0  0
 19 26  1  0  0  0  0
 20 21  2  0  0  0  0
 20 25  1  0  0  0  0
 21 22  1  0  0  0  0
 21 44  1  0  0  0  0
 22 23  1  0  0  0  0
 22 45  1  0  0  0  0
 23 24  2  0  0  0  0
 23 25  1  0  0  0  0
 25 46  1  0  0  0  0
 26 27  2  0  0  0  0
 26 47  1  0  0  0  0
 27 48  1  0  0  0  0
 28 49  1  0  0  0  0
 29 30  2  0  0  0  0
 29 50  1  0  0  0  0
M  END
$$$$
