
 OpenBabel01122422373D

 46 49  0  0  0  0  0  0  0  0999 V2000
    2.0218    0.2762   -1.1063 O   0  0  0  0  0  0  0  0  0  0  0  0
    2.3927   -0.0472    0.0277 C   0  0  0  0  0  0  0  0  0  0  0  0
    3.0441    0.9786    0.9504 C   0  0  0  0  0  0  0  0  0  0  0  0
    2.1131    1.7626    1.8474 C   0  0  0  0  0  0  0  0  0  0  0  0
    2.5140    2.0742    3.1578 C   0  0  0  0  0  0  0  0  0  0  0  0
    1.6823    2.8043    4.0070 C   0  0  0  0  0  0  0  0  0  0  0  0
    0.4482    3.2583    3.5482 C   0  0  0  0  0  0  0  0  0  0  0  0
    0.0728    3.0336    2.2218 C   0  0  0  0  0  0  0  0  0  0  0  0
   -1.1036    3.4779    1.6630 O   0  0  0  0  0  0  0  0  0  0  0  0
   -1.6321    4.6963    2.0265 C   0  0  0  0  0  0  0  0  0  0  0  0
   -0.8880    5.7995    2.4536 C   0  0  0  0  0  0  0  0  0  0  0  0
   -1.5353    6.9787    2.8283 C   0  0  0  0  0  0  0  0  0  0  0  0
   -2.9215    7.0791    2.7204 C   0  0  0  0  0  0  0  0  0  0  0  0
   -3.6608    6.0044    2.2289 C   0  0  0  0  0  0  0  0  0  0  0  0
   -3.0165    4.8155    1.8835 C   0  0  0  0  0  0  0  0  0  0  0  0
    0.8871    2.2599    1.3876 C   0  0  0  0  0  0  0  0  0  0  0  0
    2.2974   -1.3583    0.3898 N   0  0  0  0  0  0  0  0  0  0  0  0
    2.4668   -1.9146    1.6418 C   0  0  0  0  0  0  0  0  0  0  0  0
    2.5142   -1.1271    2.7143 N   0  0  0  0  0  0  0  0  0  0  0  0
    2.6649   -1.7164    3.9158 C   0  0  0  0  0  0  0  0  0  0  0  0
    2.8125   -3.0716    4.1032 C   0  0  0  0  0  0  0  0  0  0  0  0
    3.0082   -3.6581    5.4199 C   0  0  0  0  0  0  0  0  0  0  0  0
    2.9708   -2.8255    6.4802 N   0  0  0  0  0  0  0  0  0  0  0  0
    3.1458   -3.3813    7.6910 C   0  0  0  0  0  0  0  0  0  0  0  0
    3.3640   -4.7254    7.8783 C   0  0  0  0  0  0  0  0  0  0  0  0
    3.3910   -5.4883    6.7342 C   0  0  0  0  0  0  0  0  0  0  0  0
    3.2196   -4.9838    5.4962 N   0  0  0  0  0  0  0  0  0  0  0  0
    2.7536   -3.7903    2.9235 C   0  0  0  0  0  0  0  0  0  0  0  0
    2.5562   -3.2483    1.6935 N   0  0  0  0  0  0  0  0  0  0  0  0
    3.5770    1.6955    0.3124 H   0  0  0  0  0  0  0  0  0  0  0  0
    3.8391    0.4921    1.5277 H   0  0  0  0  0  0  0  0  0  0  0  0
    3.4745    1.7269    3.5331 H   0  0  0  0  0  0  0  0  0  0  0  0
    1.9965    3.0209    5.0245 H   0  0  0  0  0  0  0  0  0  0  0  0
   -0.1999    3.8037    4.2279 H   0  0  0  0  0  0  0  0  0  0  0  0
    0.1959    5.7569    2.5107 H   0  0  0  0  0  0  0  0  0  0  0  0
   -0.9554    7.8194    3.2000 H   0  0  0  0  0  0  0  0  0  0  0  0
   -3.4236    7.9992    3.0073 H   0  0  0  0  0  0  0  0  0  0  0  0
   -4.7382    6.0897    2.1165 H   0  0  0  0  0  0  0  0  0  0  0  0
   -3.5942    3.9777    1.5018 H   0  0  0  0  0  0  0  0  0  0  0  0
    0.5569    2.0581    0.3703 H   0  0  0  0  0  0  0  0  0  0  0  0
    2.0301   -2.0079   -0.3321 H   0  0  0  0  0  0  0  0  0  0  0  0
    2.6677   -1.0191    4.7509 H   0  0  0  0  0  0  0  0  0  0  0  0
    3.0997   -2.6930    8.5294 H   0  0  0  0  0  0  0  0  0  0  0  0
    3.4948   -5.1512    8.8621 H   0  0  0  0  0  0  0  0  0  0  0  0
    3.5608   -6.5597    6.7821 H   0  0  0  0  0  0  0  0  0  0  0  0
    2.8699   -4.8721    2.9210 H   0  0  0  0  0  0  0  0  0  0  0  0
  1  2  2  0  0  0  0
  2  3  1  0  0  0  0
  2 17  1  0  0  0  0
  3  4  1  0  0  0  0
  3 30  1  0  0  0  0
  3 31  1  0  0  0  0
  4  5  2  0  0  0  0
  4 16  1  0  0  0  0
  5  6  1  0  0  0  0
  5 32  1  0  0  0  0
  6  7  2  0  0  0  0
  6 33  1  0  0  0  0
  7  8  1  0  0  0  0
  7 34  1  0  0  0  0
  8  9  1  0  0  0  0
  8 16  2  0  0  0  0
  9 10  1  0  0  0  0
 10 11  2  0  0  0  0
 10 15  1  0  0  0  0
 11 12  1  0  0  0  0
 11 35  1  0  0  0  0
 12 13  2  0  0  0  0
 12 36  1  0  0  0  0
 13 14  1  0  0  0  0
 13 37  1  0  0  0  0
 14 15  2  0  0  0  0
 14 38  1  0  0  0  0
 15 39  1  0  0  0  0
 16 40  1  0  0  0  0
 17 18  1  0  0  0  0
 17 41  1  0  0  0  0
 18 19  2  0  0  0  0
 18 29  1  0  0  0  0
 19 20  1  0  0  0  0
 20 21  2  0  0  0  0
 20 42  1  0  0  0  0
 21 22  1  0  0  0  0
 21 28  1  0  0  0  0
 22 23  2  0  0  0  0
 22 27  1  0  0  0  0
 23 24  1  0  0  0  0
 24 25  2  0  0  0  0
 24 43  1  0  0  0  0
 25 26  1  0  0  0  0
 25 44  1  0  0  0  0
 26 27  2  0  0  0  0
 26 45  1  0  0  0  0
 28 29  2  0  0  0  0
 28 46  1  0  0  0  0
M  END
$$$$
