
 OpenBabel01122422373D

 47 50  0  0  1  0  0  0  0  0999 V2000
    3.0354    0.4498   -2.4063 O   0  0  0  0  0  0  0  0  0  0  0  0
    3.2690    0.2299   -1.2211 C   0  0  0  0  0  0  0  0  0  0  0  0
    2.8970    1.1206   -0.2416 N   0  0  0  0  0  0  0  0  0  0  0  0
    2.1836    2.3602   -0.5394 C   0  0  3  0  0  0  0  0  0  0  0  0
    1.3388    2.7031    0.7059 C   0  0  0  0  0  0  0  0  0  0  0  0
    1.8326    2.7243    1.8396 O   0  0  0  0  0  0  0  0  0  0  0  0
   -0.1252    2.9866    0.5679 C   0  0  0  0  0  0  0  0  0  0  0  0
   -0.9061    2.4109   -0.4407 C   0  0  0  0  0  0  0  0  0  0  0  0
   -2.2769    2.6762   -0.5094 C   0  0  0  0  0  0  0  0  0  0  0  0
   -2.8834    3.5036    0.4357 C   0  0  0  0  0  0  0  0  0  0  0  0
   -2.1188    4.0611    1.4597 C   0  0  0  0  0  0  0  0  0  0  0  0
   -0.7452    3.8017    1.5276 C   0  0  0  0  0  0  0  0  0  0  0  0
    3.1427    3.4869   -0.8957 C   0  0  0  0  0  0  0  0  0  0  0  0
    3.0175    4.1415   -2.1326 C   0  0  0  0  0  0  0  0  0  0  0  0
    3.8319    5.2302   -2.4524 C   0  0  0  0  0  0  0  0  0  0  0  0
    4.7922    5.6737   -1.5468 C   0  0  0  0  0  0  0  0  0  0  0  0
    4.9575    5.0117   -0.3325 C   0  0  0  0  0  0  0  0  0  0  0  0
    4.1435    3.9221   -0.0105 C   0  0  0  0  0  0  0  0  0  0  0  0
    3.8861   -0.9864   -0.7368 C   0  0  0  0  0  0  0  0  0  0  0  0
    3.7286   -1.6000    0.4978 C   0  0  0  0  0  0  0  0  0  0  0  0
    4.3410   -2.8511    0.3814 C   0  0  0  0  0  0  0  0  0  0  0  0
    4.8405   -3.0527   -0.8332 N   0  0  0  0  0  0  0  0  0  0  0  0
    4.6718   -1.8645   -1.4841 N   0  0  0  0  0  0  0  0  0  0  0  0
    5.3688   -1.6738   -2.7086 C   0  0  0  0  0  0  0  0  0  0  0  0
    5.6889   -2.7914   -3.4915 C   0  0  0  0  0  0  0  0  0  0  0  0
    6.4241   -2.5941   -4.6479 C   0  0  0  0  0  0  0  0  0  0  0  0
    6.8758   -1.3879   -5.0504 N   0  0  0  0  0  0  0  0  0  0  0  0
    6.5690   -0.3310   -4.2660 C   0  0  0  0  0  0  0  0  0  0  0  0
    5.8201   -0.4160   -3.1030 C   0  0  0  0  0  0  0  0  0  0  0  0
    3.1626    0.9730    0.7226 H   0  0  0  0  0  0  0  0  0  0  0  0
    1.5388    2.1683   -1.3996 H   0  0  0  0  0  0  0  0  0  0  0  0
   -0.4890    1.7217   -1.1691 H   0  0  0  0  0  0  0  0  0  0  0  0
   -2.8820    2.2263   -1.2928 H   0  0  0  0  0  0  0  0  0  0  0  0
   -3.9484    3.7002    0.3811 H   0  0  0  0  0  0  0  0  0  0  0  0
   -2.5946    4.6895    2.2092 H   0  0  0  0  0  0  0  0  0  0  0  0
   -0.1673    4.2343    2.3423 H   0  0  0  0  0  0  0  0  0  0  0  0
    2.2796    3.8101   -2.8607 H   0  0  0  0  0  0  0  0  0  0  0  0
    3.7117    5.7364   -3.4072 H   0  0  0  0  0  0  0  0  0  0  0  0
    5.4119    6.5334   -1.7878 H   0  0  0  0  0  0  0  0  0  0  0  0
    5.7140    5.3509    0.3708 H   0  0  0  0  0  0  0  0  0  0  0  0
    4.2841    3.4293    0.9502 H   0  0  0  0  0  0  0  0  0  0  0  0
    3.1715   -1.2307    1.3477 H   0  0  0  0  0  0  0  0  0  0  0  0
    4.4173   -3.6411    1.1183 H   0  0  0  0  0  0  0  0  0  0  0  0
    5.3612   -3.7920   -3.2260 H   0  0  0  0  0  0  0  0  0  0  0  0
    6.6782   -3.4262   -5.2991 H   0  0  0  0  0  0  0  0  0  0  0  0
    6.9713    0.6211   -4.6006 H   0  0  0  0  0  0  0  0  0  0  0  0
    5.6566    0.4810   -2.5175 H   0  0  0  0  0  0  0  0  0  0  0  0
  1  2  2  0  0  0  0
  2  3  1  0  0  0  0
  2 19  1  0  0  0  0
  3  4  1  0  0  0  0
  3 30  1  0  0  0  0
  4  5  1  0  0  0  0
  4 13  1  0  0  0  0
  4 31  1  0  0  0  0
  5  6  2  0  0  0  0
  5  7  1  0  0  0  0
  7  8  2  0  0  0  0
  7 12  1  0  0  0  0
  8  9  1  0  0  0  0
  8 32  1  0  0  0  0
  9 10  2  0  0  0  0
  9 33  1  0  0  0  0
 10 11  1  0  0  0  0
 10 34  1  0  0  0  0
 11 12  2  0  0  0  0
 11 35  1  0  0  0  0
 12 36  1  0  0  0  0
 13 14  2  0  0  0  0
 13 18  1  0  0  0  0
 14 15  1  0  0  0  0
 14 37  1  0  0  0  0
 15 16  2  0  0  0  0
 15 38  1  0  0  0  0
 16 17  1  0  0  0  0
 16 39  1  0  0  0  0
 17 18  2  0  0  0  0
 17 40  1  0  0  0  0
 18 41  1  0  0  0  0
 19 20  2  0  0  0  0
 19 23  1  0  0  0  0
 20 21  1  0  0  0  0
 20 42  1  0  0  0  0
 21 22  2  0  0  0  0
 21 43  1  0  0  0  0
 22 23  1  0  0  0  0
 23 24  1  0  0  0  0
 24 25  2  0  0  0  0
 24 29  1  0  0  0  0
 25 26  1  0  0  0  0
 25 44  1  0  0  0  0
 26 27  2  0  0  0  0
 26 45  1  0  0  0  0
 27 28  1  0  0  0  0
 28 29  2  0  0  0  0
 28 46  1  0  0  0  0
 29 47  1  0  0  0  0
M  END
$$$$
