
 OpenBabel01122422373D

 39 42  0  0  0  0  0  0  0  0999 V2000
    3.8288   -1.7257   -1.7227 N   0  0  0  0  0  0  0  0  0  0  0  0
    4.2965   -0.8025   -0.8386 C   0  0  0  0  0  0  0  0  0  0  0  0
    4.7861    0.2543   -1.2334 O   0  0  0  0  0  0  0  0  0  0  0  0
    4.1962   -1.1670    0.5566 C   0  0  0  0  0  0  0  0  0  0  0  0
    4.6260   -0.4867    1.6849 C   0  0  0  0  0  0  0  0  0  0  0  0
    5.1967    0.7748    1.6101 N   0  0  0  0  0  0  0  0  0  0  0  0
    6.3448    1.1450    2.2859 C   0  0  0  0  0  0  0  0  0  0  0  0
    6.9586    0.4239    3.0664 O   0  0  0  0  0  0  0  0  0  0  0  0
    6.8038    2.4655    1.9153 C   0  0  0  0  0  0  0  0  0  0  0  0
    7.9529    3.1718    2.1876 C   0  0  0  0  0  0  0  0  0  0  0  0
    7.7650    4.4410    1.5696 C   0  0  0  0  0  0  0  0  0  0  0  0
    8.6525    5.5960    1.5615 C   0  0  0  0  0  0  0  0  0  0  0  0
   10.0402    5.4396    1.5917 C   0  0  0  0  0  0  0  0  0  0  0  0
   10.5921    4.2180    1.6214 F   0  0  0  0  0  0  0  0  0  0  0  0
   10.8977    6.5397    1.5834 C   0  0  0  0  0  0  0  0  0  0  0  0
   10.3632    7.8181    1.5327 C   0  0  0  0  0  0  0  0  0  0  0  0
   11.1842    8.8762    1.5239 F   0  0  0  0  0  0  0  0  0  0  0  0
    8.9936    8.0138    1.5079 C   0  0  0  0  0  0  0  0  0  0  0  0
    8.1488    6.9053    1.5221 C   0  0  0  0  0  0  0  0  0  0  0  0
    6.8277    7.1376    1.5264 F   0  0  0  0  0  0  0  0  0  0  0  0
    6.5875    4.4636    0.9272 N   0  0  0  0  0  0  0  0  0  0  0  0
    5.9953    3.2450    1.1453 O   0  0  0  0  0  0  0  0  0  0  0  0
    4.3164   -1.3139    2.8029 C   0  0  0  0  0  0  0  0  0  0  0  0
    4.4027   -1.2152    4.2067 C   0  0  0  0  0  0  0  0  0  0  0  0
    3.9126   -2.2701    4.9953 C   0  0  0  0  0  0  0  0  0  0  0  0
    3.3585   -3.4108    4.4106 C   0  0  0  0  0  0  0  0  0  0  0  0
    3.2591   -3.5307    3.0220 C   0  0  0  0  0  0  0  0  0  0  0  0
    3.7328   -2.4592    2.2660 C   0  0  0  0  0  0  0  0  0  0  0  0
    3.6710   -2.3773    0.9072 O   0  0  0  0  0  0  0  0  0  0  0  0
    3.9152   -1.5365   -2.7106 H   0  0  0  0  0  0  0  0  0  0  0  0
    3.4445   -2.6042   -1.4020 H   0  0  0  0  0  0  0  0  0  0  0  0
    5.0304    1.2832    0.7416 H   0  0  0  0  0  0  0  0  0  0  0  0
    8.7965    2.8216    2.7638 H   0  0  0  0  0  0  0  0  0  0  0  0
   11.9713    6.3969    1.5973 H   0  0  0  0  0  0  0  0  0  0  0  0
    8.5781    9.0154    1.4791 H   0  0  0  0  0  0  0  0  0  0  0  0
    4.8205   -0.3309    4.6771 H   0  0  0  0  0  0  0  0  0  0  0  0
    3.9634   -2.1942    6.0799 H   0  0  0  0  0  0  0  0  0  0  0  0
    2.9913   -4.2160    5.0443 H   0  0  0  0  0  0  0  0  0  0  0  0
    2.8218   -4.4034    2.5523 H   0  0  0  0  0  0  0  0  0  0  0  0
  1  2  1  0  0  0  0
  1 30  1  0  0  0  0
  1 31  1  0  0  0  0
  2  3  2  0  0  0  0
  2  4  1  0  0  0  0
  4  5  2  0  0  0  0
  4 29  1  0  0  0  0
  5  6  1  0  0  0  0
  5 23  1  0  0  0  0
  6  7  1  0  0  0  0
  6 32  1  0  0  0  0
  7  8  2  0  0  0  0
  7  9  1  0  0  0  0
  9 10  2  0  0  0  0
  9 22  1  0  0  0  0
 10 11  1  0  0  0  0
 10 33  1  0  0  0  0
 11 12  1  0  0  0  0
 11 21  2  0  0  0  0
 12 13  2  0  0  0  0
 12 19  1  0  0  0  0
 13 14  1  0  0  0  0
 13 15  1  0  0  0  0
 15 16  2  0  0  0  0
 15 34  1  0  0  0  0
 16 17  1  0  0  0  0
 16 18  1  0  0  0  0
 18 19  2  0  0  0  0
 18 35  1  0  0  0  0
 19 20  1  0  0  0  0
 21 22  1  0  0  0  0
 23 24  2  0  0  0  0
 23 28  1  0  0  0  0
 24 25  1  0  0  0  0
 24 36  1  0  0  0  0
 25 26  2  0  0  0  0
 25 37  1  0  0  0  0
 26 27  1  0  0  0  0
 26 38  1  0  0  0  0
 27 28  2  0  0  0  0
 27 39  1  0  0  0  0
 28 29  1  0  0  0  0
M  END
$$$$
