
 OpenBabel01122422353D

 49 52  0  0  0  0  0  0  0  0999 V2000
    1.0466    0.1329    0.5910 O   0  0  0  0  0  0  0  0  0  0  0  0
    2.2304   -0.0057    0.3094 C   0  0  0  0  0  0  0  0  0  0  0  0
    2.9016   -1.2168    0.2474 N   0  0  0  0  0  0  0  0  0  0  0  0
    2.2365   -2.4421    0.4930 C   0  0  0  0  0  0  0  0  0  0  0  0
    1.1344   -2.7775   -0.3081 C   0  0  0  0  0  0  0  0  0  0  0  0
    0.5360   -4.0353   -0.2023 C   0  0  0  0  0  0  0  0  0  0  0  0
    1.0207   -4.9618    0.7165 C   0  0  0  0  0  0  0  0  0  0  0  0
    2.0952   -4.6264    1.5402 C   0  0  0  0  0  0  0  0  0  0  0  0
    2.7056   -3.3664    1.4417 C   0  0  0  0  0  0  0  0  0  0  0  0
    3.7880   -3.0776    2.4245 C   0  0  0  0  0  0  0  0  0  0  0  0
    4.5130   -3.9823    2.8187 O   0  0  0  0  0  0  0  0  0  0  0  0
    3.8856   -1.7763    2.8785 N   0  0  0  0  0  0  0  0  0  0  0  0
    4.8465   -1.4110    3.8976 C   0  0  0  0  0  0  0  0  0  0  0  0
    4.2491   -1.4661    5.2792 C   0  0  0  0  0  0  0  0  0  0  0  0
    4.2806   -2.6621    6.0110 C   0  0  0  0  0  0  0  0  0  0  0  0
    3.7358   -2.7247    7.2938 C   0  0  0  0  0  0  0  0  0  0  0  0
    3.1486   -1.5936    7.8567 C   0  0  0  0  0  0  0  0  0  0  0  0
    3.0991   -0.4024    7.1346 C   0  0  0  0  0  0  0  0  0  0  0  0
    3.6412   -0.3385    5.8490 C   0  0  0  0  0  0  0  0  0  0  0  0
    3.0700    1.2032    0.1391 C   0  0  0  0  0  0  0  0  0  0  0  0
    2.7719    2.3439    0.8867 C   0  0  0  0  0  0  0  0  0  0  0  0
    3.5371    3.4747    0.6717 C   0  0  0  0  0  0  0  0  0  0  0  0
    4.5344    3.5389   -0.2349 N   0  0  0  0  0  0  0  0  0  0  0  0
    4.7867    2.4239   -0.9715 C   0  0  0  0  0  0  0  0  0  0  0  0
    5.8098    2.5429   -2.0132 C   0  0  0  0  0  0  0  0  0  0  0  0
    6.1802    1.5045   -2.7801 N   0  0  0  0  0  0  0  0  0  0  0  0
    7.0847    2.0104   -3.6355 N   0  0  0  0  0  0  0  0  0  0  0  0
    7.3339    3.3424   -3.4397 C   0  0  0  0  0  0  0  0  0  0  0  0
    6.5203    3.7254   -2.3951 C   0  0  0  0  0  0  0  0  0  0  0  0
    4.0967    1.2334   -0.7999 C   0  0  0  0  0  0  0  0  0  0  0  0
    3.9042   -1.2022    0.4175 H   0  0  0  0  0  0  0  0  0  0  0  0
    0.7620   -2.0790   -1.0556 H   0  0  0  0  0  0  0  0  0  0  0  0
   -0.3007   -4.2937   -0.8463 H   0  0  0  0  0  0  0  0  0  0  0  0
    0.5590   -5.9430    0.7988 H   0  0  0  0  0  0  0  0  0  0  0  0
    2.4507   -5.3491    2.2739 H   0  0  0  0  0  0  0  0  0  0  0  0
    3.0745   -1.1797    2.7656 H   0  0  0  0  0  0  0  0  0  0  0  0
    5.1919   -0.3945    3.6765 H   0  0  0  0  0  0  0  0  0  0  0  0
    5.7256   -2.0638    3.8397 H   0  0  0  0  0  0  0  0  0  0  0  0
    4.7336   -3.5533    5.5784 H   0  0  0  0  0  0  0  0  0  0  0  0
    3.7710   -3.6570    7.8512 H   0  0  0  0  0  0  0  0  0  0  0  0
    2.7277   -1.6426    8.8574 H   0  0  0  0  0  0  0  0  0  0  0  0
    2.6387    0.4782    7.5753 H   0  0  0  0  0  0  0  0  0  0  0  0
    3.5931    0.5987    5.3000 H   0  0  0  0  0  0  0  0  0  0  0  0
    1.9634    2.3509    1.6086 H   0  0  0  0  0  0  0  0  0  0  0  0
    3.3532    4.3897    1.2270 H   0  0  0  0  0  0  0  0  0  0  0  0
    7.5049    1.4009   -4.3171 H   0  0  0  0  0  0  0  0  0  0  0  0
    8.0417    3.8894   -4.0481 H   0  0  0  0  0  0  0  0  0  0  0  0
    6.4248    4.7033   -1.9594 H   0  0  0  0  0  0  0  0  0  0  0  0
    4.3199    0.3762   -1.4245 H   0  0  0  0  0  0  0  0  0  0  0  0
  1  2  2  0  0  0  0
  2  3  1  0  0  0  0
  2 20  1  0  0  0  0
  3  4  1  0  0  0  0
  3 31  1  0  0  0  0
  4  5  2  0  0  0  0
  4  9  1  0  0  0  0
  5  6  1  0  0  0  0
  5 32  1  0  0  0  0
  6  7  2  0  0  0  0
  6 33  1  0  0  0  0
  7  8  1  0  0  0  0
  7 34  1  0  0  0  0
  8  9  2  0  0  0  0
  8 35  1  0  0  0  0
  9 10  1  0  0  0  0
 10 11  2  0  0  0  0
 10 12  1  0  0  0  0
 12 13  1  0  0  0  0
 12 36  1  0  0  0  0
 13 14  1  0  0  0  0
 13 37  1  0  0  0  0
 13 38  1  0  0  0  0
 14 15  2  0  0  0  0
 14 19  1  0  0  0  0
 15 16  1  0  0  0  0
 15 39  1  0  0  0  0
 16 17  2  0  0  0  0
 16 40  1  0  0  0  0
 17 18  1  0  0  0  0
 17 41  1  0  0  0  0
 18 19  2  0  0  0  0
 18 42  1  0  0  0  0
 19 43  1  0  0  0  0
 20 21  2  0  0  0  0
 20 30  1  0  0  0  0
 21 22  1  0  0  0  0
 21 44  1  0  0  0  0
 22 23  2  0  0  0  0
 22 45  1  0  0  0  0
 23 24  1  0  0  0  0
 24 25  1  0  0  0  0
 24 30  2  0  0  0  0
 25 26  2  0  0  0  0
 25 29  1  0  0  0  0
 26 27  1  0  0  0  0
 27 28  1  0  0  0  0
 27 46  1  0  0  0  0
 28 29  2  0  0  0  0
 28 47  1  0  0  0  0
 29 48  1  0  0  0  0
 30 49  1  0  0  0  0
M  END
$$$$
