
 OpenBabel01122422373D

 47 50  0  0  1  0  0  0  0  0999 V2000
    1.0726    0.2010   -0.0639 O   0  0  0  0  0  0  0  0  0  0  0  0
    2.2857    0.0003    0.0366 C   0  0  0  0  0  0  0  0  0  0  0  0
    2.9358    0.0134    1.2926 N   0  0  0  0  0  0  0  0  0  0  0  0
    2.1424    0.1944    2.6002 S   0  0  3  0  0  0  0  0  0  0  0  0
    1.3027    1.3382    2.9022 O   0  0  0  0  0  0  0  0  0  0  0  0
    1.1410   -1.2746    2.7956 C   0  0  0  0  0  0  0  0  0  0  0  0
    1.7599   -2.5231    2.9161 C   0  0  0  0  0  0  0  0  0  0  0  0
    0.9753   -3.6590    3.1198 C   0  0  0  0  0  0  0  0  0  0  0  0
   -0.4146   -3.5471    3.1972 C   0  0  0  0  0  0  0  0  0  0  0  0
   -1.0276   -2.3008    3.0565 C   0  0  0  0  0  0  0  0  0  0  0  0
   -0.2515   -1.1587    2.8540 C   0  0  0  0  0  0  0  0  0  0  0  0
    3.3298    0.1599    3.9362 C   0  0  0  0  0  0  0  0  0  0  0  0
    4.6947    0.0715    3.6755 C   0  0  0  0  0  0  0  0  0  0  0  0
    5.5504    0.0526    4.7609 C   0  0  0  0  0  0  0  0  0  0  0  0
    5.1358    0.1195    6.0449 N   0  0  0  0  0  0  0  0  0  0  0  0
    3.8057    0.2258    6.2602 C   0  0  0  0  0  0  0  0  0  0  0  0
    2.8653    0.2532    5.2478 C   0  0  0  0  0  0  0  0  0  0  0  0
    3.1097   -0.1756   -1.2450 C   0  0  3  0  0  0  0  0  0  0  0  0
    3.6045    1.1417   -1.8390 C   0  0  0  0  0  0  0  0  0  0  0  0
    4.3869    2.0479   -1.1036 C   0  0  0  0  0  0  0  0  0  0  0  0
    4.7651    3.2766   -1.6495 C   0  0  0  0  0  0  0  0  0  0  0  0
    4.3403    3.6356   -2.9255 C   0  0  0  0  0  0  0  0  0  0  0  0
    3.5723    2.7486   -3.6744 C   0  0  0  0  0  0  0  0  0  0  0  0
    3.2222    1.5040   -3.1443 C   0  0  0  0  0  0  0  0  0  0  0  0
    4.1401   -1.2134   -1.0970 N   0  0  0  0  0  0  0  0  0  0  0  0
    5.4506   -1.1022   -0.7104 C   0  0  0  0  0  0  0  0  0  0  0  0
    5.9785   -2.3716   -0.7254 C   0  0  0  0  0  0  0  0  0  0  0  0
    4.9178   -3.1908   -1.1437 C   0  0  0  0  0  0  0  0  0  0  0  0
    3.8006   -2.4995   -1.3728 N   0  0  0  0  0  0  0  0  0  0  0  0
    2.8396   -2.6238    2.8432 H   0  0  0  0  0  0  0  0  0  0  0  0
    1.4445   -4.6353    3.2156 H   0  0  0  0  0  0  0  0  0  0  0  0
   -1.0223   -4.4343    3.3594 H   0  0  0  0  0  0  0  0  0  0  0  0
   -2.1113   -2.2206    3.1024 H   0  0  0  0  0  0  0  0  0  0  0  0
   -0.7364   -0.1919    2.7379 H   0  0  0  0  0  0  0  0  0  0  0  0
    5.0909    0.0202    2.6684 H   0  0  0  0  0  0  0  0  0  0  0  0
    6.6263   -0.0176    4.6262 H   0  0  0  0  0  0  0  0  0  0  0  0
    3.5115    0.2931    7.3042 H   0  0  0  0  0  0  0  0  0  0  0  0
    1.8105    0.3557    5.4782 H   0  0  0  0  0  0  0  0  0  0  0  0
    2.4044   -0.6110   -1.9705 H   0  0  0  0  0  0  0  0  0  0  0  0
    4.7064    1.8174   -0.0890 H   0  0  0  0  0  0  0  0  0  0  0  0
    5.3790    3.9620   -1.0702 H   0  0  0  0  0  0  0  0  0  0  0  0
    4.6042    4.6081   -3.3337 H   0  0  0  0  0  0  0  0  0  0  0  0
    3.2370    3.0307   -4.6699 H   0  0  0  0  0  0  0  0  0  0  0  0
    2.6256    0.8301   -3.7580 H   0  0  0  0  0  0  0  0  0  0  0  0
    5.9007   -0.1557   -0.4514 H   0  0  0  0  0  0  0  0  0  0  0  0
    6.9870   -2.6633   -0.4734 H   0  0  0  0  0  0  0  0  0  0  0  0
    4.9104   -4.2623   -1.2889 H   0  0  0  0  0  0  0  0  0  0  0  0
  1  2  2  0  0  0  0
  2  3  1  0  0  0  0
  2 18  1  0  0  0  0
  3  4  2  0  0  0  0
  4  5  2  0  0  0  0
  4  6  1  0  0  0  0
  4 12  1  0  0  0  0
  6  7  2  0  0  0  0
  6 11  1  0  0  0  0
  7  8  1  0  0  0  0
  7 30  1  0  0  0  0
  8  9  2  0  0  0  0
  8 31  1  0  0  0  0
  9 10  1  0  0  0  0
  9 32  1  0  0  0  0
 10 11  2  0  0  0  0
 10 33  1  0  0  0  0
 11 34  1  0  0  0  0
 12 13  2  0  0  0  0
 12 17  1  0  0  0  0
 13 14  1  0  0  0  0
 13 35  1  0  0  0  0
 14 15  2  0  0  0  0
 14 36  1  0  0  0  0
 15 16  1  0  0  0  0
 16 17  2  0  0  0  0
 16 37  1  0  0  0  0
 17 38  1  0  0  0  0
 18 19  1  0  0  0  0
 18 25  1  0  0  0  0
 18 39  1  0  0  0  0
 19 20  2  0  0  0  0
 19 24  1  0  0  0  0
 20 21  1  0  0  0  0
 20 40  1  0  0  0  0
 21 22  2  0  0  0  0
 21 41  1  0  0  0  0
 22 23  1  0  0  0  0
 22 42  1  0  0  0  0
 23 24  2  0  0  0  0
 23 43  1  0  0  0  0
 24 44  1  0  0  0  0
 25 26  1  0  0  0  0
 25 29  1  0  0  0  0
 26 27  2  0  0  0  0
 26 45  1  0  0  0  0
 27 28  1  0  0  0  0
 27 46  1  0  0  0  0
 28 29  2  0  0  0  0
 28 47  1  0  0  0  0
M  END
$$$$
