
 OpenBabel01122422373D

 53 56  0  0  0  0  0  0  0  0999 V2000
    2.3389   -1.3287    0.2344 N   0  0  0  0  0  0  0  0  0  0  0  0
    2.1095    0.0137    0.1320 C   0  0  0  0  0  0  0  0  0  0  0  0
    1.2132    0.4462   -0.5855 O   0  0  0  0  0  0  0  0  0  0  0  0
    3.0113    0.9053    0.9836 C   0  0  0  0  0  0  0  0  0  0  0  0
    4.4585    0.6823    0.7025 N   0  0  0  0  0  0  0  0  0  0  0  0
    4.7447    1.0267   -0.7236 C   0  0  0  0  0  0  0  0  0  0  0  0
    6.2162    0.8319   -1.0974 C   0  0  0  0  0  0  0  0  0  0  0  0
    6.8876    1.8132   -1.4270 O   0  0  0  0  0  0  0  0  0  0  0  0
    6.8173   -0.5064   -1.0238 C   0  0  0  0  0  0  0  0  0  0  0  0
    6.1492   -1.7101   -0.8746 C   0  0  0  0  0  0  0  0  0  0  0  0
    7.0768   -2.7144   -0.7851 N   0  0  0  0  0  0  0  0  0  0  0  0
    8.3471   -2.1977   -0.8732 C   0  0  0  0  0  0  0  0  0  0  0  0
    9.5901   -2.8376   -0.7963 C   0  0  0  0  0  0  0  0  0  0  0  0
   10.7358   -2.0457   -0.9176 C   0  0  0  0  0  0  0  0  0  0  0  0
   10.6404   -0.6723   -1.1264 C   0  0  0  0  0  0  0  0  0  0  0  0
    9.3900   -0.0519   -1.2031 C   0  0  0  0  0  0  0  0  0  0  0  0
    8.2148   -0.8209   -1.0597 C   0  0  0  0  0  0  0  0  0  0  0  0
    5.2661    1.5632    1.5883 C   0  0  0  0  0  0  0  0  0  0  0  0
    5.0789    1.2828    3.0647 C   0  0  0  0  0  0  0  0  0  0  0  0
    5.3649    0.0249    3.6057 C   0  0  0  0  0  0  0  0  0  0  0  0
    5.1513   -0.2311    4.9680 C   0  0  0  0  0  0  0  0  0  0  0  0
    4.6709    0.7637    5.8391 C   0  0  0  0  0  0  0  0  0  0  0  0
    4.4442    0.5096    7.2855 C   0  0  0  0  0  0  0  0  0  0  0  0
    5.2260   -0.4084    8.0106 C   0  0  0  0  0  0  0  0  0  0  0  0
    5.0305   -0.6148    9.3815 C   0  0  0  0  0  0  0  0  0  0  0  0
    4.0517    0.1010   10.0643 C   0  0  0  0  0  0  0  0  0  0  0  0
    3.2570    1.0068    9.3744 C   0  0  0  0  0  0  0  0  0  0  0  0
    3.4441    1.1971    8.0017 C   0  0  0  0  0  0  0  0  0  0  0  0
    4.4207    2.0301    5.2787 C   0  0  0  0  0  0  0  0  0  0  0  0
    4.6123    2.2864    3.9175 C   0  0  0  0  0  0  0  0  0  0  0  0
    1.7932   -1.9405   -0.3556 H   0  0  0  0  0  0  0  0  0  0  0  0
    3.2196   -1.6513    0.6169 H   0  0  0  0  0  0  0  0  0  0  0  0
    2.7707    0.6521    2.0220 H   0  0  0  0  0  0  0  0  0  0  0  0
    2.7266    1.9542    0.8140 H   0  0  0  0  0  0  0  0  0  0  0  0
    4.4812    2.0734   -0.9255 H   0  0  0  0  0  0  0  0  0  0  0  0
    4.1589    0.4067   -1.4123 H   0  0  0  0  0  0  0  0  0  0  0  0
    5.0957   -1.9418   -0.8131 H   0  0  0  0  0  0  0  0  0  0  0  0
    6.8692   -3.6954   -0.6584 H   0  0  0  0  0  0  0  0  0  0  0  0
    9.6709   -3.9083   -0.6376 H   0  0  0  0  0  0  0  0  0  0  0  0
   11.7177   -2.5092   -0.8479 H   0  0  0  0  0  0  0  0  0  0  0  0
   11.5417   -0.0729   -1.2246 H   0  0  0  0  0  0  0  0  0  0  0  0
    9.3277    1.0216   -1.3631 H   0  0  0  0  0  0  0  0  0  0  0  0
    5.0367    2.6177    1.3799 H   0  0  0  0  0  0  0  0  0  0  0  0
    6.3379    1.4364    1.3913 H   0  0  0  0  0  0  0  0  0  0  0  0
    5.7435   -0.7683    2.9645 H   0  0  0  0  0  0  0  0  0  0  0  0
    5.3601   -1.2331    5.3343 H   0  0  0  0  0  0  0  0  0  0  0  0
    6.0205   -0.9668    7.5215 H   0  0  0  0  0  0  0  0  0  0  0  0
    5.6532   -1.3282    9.9155 H   0  0  0  0  0  0  0  0  0  0  0  0
    3.9121   -0.0463   11.1321 H   0  0  0  0  0  0  0  0  0  0  0  0
    2.4897    1.5699    9.8990 H   0  0  0  0  0  0  0  0  0  0  0  0
    2.7852    1.8993    7.4957 H   0  0  0  0  0  0  0  0  0  0  0  0
    4.0765    2.8522    5.9024 H   0  0  0  0  0  0  0  0  0  0  0  0
    4.3899    3.2801    3.5348 H   0  0  0  0  0  0  0  0  0  0  0  0
  1  2  1  0  0  0  0
  1 31  1  0  0  0  0
  1 32  1  0  0  0  0
  2  3  2  0  0  0  0
  2  4  1  0  0  0  0
  4  5  1  0  0  0  0
  4 33  1  0  0  0  0
  4 34  1  0  0  0  0
  5  6  1  0  0  0  0
  5 18  1  0  0  0  0
  6  7  1  0  0  0  0
  6 35  1  0  0  0  0
  6 36  1  0  0  0  0
  7  8  2  0  0  0  0
  7  9  1  0  0  0  0
  9 10  2  0  0  0  0
  9 17  1  0  0  0  0
 10 11  1  0  0  0  0
 10 37  1  0  0  0  0
 11 12  1  0  0  0  0
 11 38  1  0  0  0  0
 12 13  2  0  0  0  0
 12 17  1  0  0  0  0
 13 14  1  0  0  0  0
 13 39  1  0  0  0  0
 14 15  2  0  0  0  0
 14 40  1  0  0  0  0
 15 16  1  0  0  0  0
 15 41  1  0  0  0  0
 16 17  2  0  0  0  0
 16 42  1  0  0  0  0
 18 19  1  0  0  0  0
 18 43  1  0  0  0  0
 18 44  1  0  0  0  0
 19 20  2  0  0  0  0
 19 30  1  0  0  0  0
 20 21  1  0  0  0  0
 20 45  1  0  0  0  0
 21 22  2  0  0  0  0
 21 46  1  0  0  0  0
 22 23  1  0  0  0  0
 22 29  1  0  0  0  0
 23 24  2  0  0  0  0
 23 28  1  0  0  0  0
 24 25  1  0  0  0  0
 24 47  1  0  0  0  0
 25 26  2  0  0  0  0
 25 48  1  0  0  0  0
 26 27  1  0  0  0  0
 26 49  1  0  0  0  0
 27 28  2  0  0  0  0
 27 50  1  0  0  0  0
 28 51  1  0  0  0  0
 29 30  2  0  0  0  0
 29 52  1  0  0  0  0
 30 53  1  0  0  0  0
M  END
$$$$
