
 OpenBabel01122422373D

 51 54  0  0  0  0  0  0  0  0999 V2000
    0.9550    0.0854    0.0250 O   0  0  0  0  0  0  0  0  0  0  0  0
    2.1803    0.0050   -0.0134 C   0  0  0  0  0  0  0  0  0  0  0  0
    2.9108   -1.0336   -0.8644 C   0  0  0  0  0  0  0  0  0  0  0  0
    3.1979   -0.5227   -2.1618 O   0  0  0  0  0  0  0  0  0  0  0  0
    3.7941   -1.3965   -3.0377 C   0  0  0  0  0  0  0  0  0  0  0  0
    4.2646   -2.6710   -2.7059 C   0  0  0  0  0  0  0  0  0  0  0  0
    4.8970   -3.4623   -3.6659 C   0  0  0  0  0  0  0  0  0  0  0  0
    5.0458   -2.9946   -4.9675 C   0  0  0  0  0  0  0  0  0  0  0  0
    4.5180   -1.7527   -5.3292 C   0  0  0  0  0  0  0  0  0  0  0  0
    4.6043   -1.2547   -6.6117 O   0  0  0  0  0  0  0  0  0  0  0  0
    4.3432   -2.1325   -7.6638 C   0  0  0  0  0  0  0  0  0  0  0  0
    4.8916   -1.8140   -8.8973 C   0  0  0  0  0  0  0  0  0  0  0  0
    4.6646   -2.6826   -9.9649 C   0  0  0  0  0  0  0  0  0  0  0  0
    3.9003   -3.8278   -9.7637 C   0  0  0  0  0  0  0  0  0  0  0  0
    3.3780   -4.0519   -8.5014 C   0  0  0  0  0  0  0  0  0  0  0  0
    3.5710   -3.2242   -7.4549 N   0  0  0  0  0  0  0  0  0  0  0  0
    3.9284   -0.9397   -4.3542 C   0  0  0  0  0  0  0  0  0  0  0  0
    3.0114    0.8188    0.7241 N   0  0  0  0  0  0  0  0  0  0  0  0
    2.5321    1.8381    1.6417 C   0  0  0  0  0  0  0  0  0  0  0  0
    2.9847    1.5901    3.0824 C   0  0  0  0  0  0  0  0  0  0  0  0
    4.4816    1.6089    3.2090 C   0  0  0  0  0  0  0  0  0  0  0  0
    5.2907    0.7806    2.5757 N   0  0  0  0  0  0  0  0  0  0  0  0
    6.6070    1.0204    2.9479 C   0  0  0  0  0  0  0  0  0  0  0  0
    7.7019    0.2176    2.4156 C   0  0  0  0  0  0  0  0  0  0  0  0
    7.5833   -0.3742    1.1559 C   0  0  0  0  0  0  0  0  0  0  0  0
    8.6448   -1.1212    0.6722 C   0  0  0  0  0  0  0  0  0  0  0  0
    9.7919   -1.3231    1.3535 N   0  0  0  0  0  0  0  0  0  0  0  0
    9.8804   -0.7585    2.5742 C   0  0  0  0  0  0  0  0  0  0  0  0
    8.8770    0.0099    3.1424 C   0  0  0  0  0  0  0  0  0  0  0  0
    6.7745    2.0774    3.8212 C   0  0  0  0  0  0  0  0  0  0  0  0
    5.2522    2.7515    4.2296 S   0  0  0  0  0  0  0  0  0  0  0  0
    2.2611   -1.9155   -0.9242 H   0  0  0  0  0  0  0  0  0  0  0  0
    3.8404   -1.3046   -0.3477 H   0  0  0  0  0  0  0  0  0  0  0  0
    4.1601   -3.0849   -1.7094 H   0  0  0  0  0  0  0  0  0  0  0  0
    5.2634   -4.4508   -3.4033 H   0  0  0  0  0  0  0  0  0  0  0  0
    5.5422   -3.6219   -5.7031 H   0  0  0  0  0  0  0  0  0  0  0  0
    5.4889   -0.9190   -9.0260 H   0  0  0  0  0  0  0  0  0  0  0  0
    5.0833   -2.4708  -10.9448 H   0  0  0  0  0  0  0  0  0  0  0  0
    3.7134   -4.5287  -10.5700 H   0  0  0  0  0  0  0  0  0  0  0  0
    2.7763   -4.9313   -8.2893 H   0  0  0  0  0  0  0  0  0  0  0  0
    3.5532    0.0435   -4.6267 H   0  0  0  0  0  0  0  0  0  0  0  0
    4.0164    0.6695    0.6934 H   0  0  0  0  0  0  0  0  0  0  0  0
    1.4385    1.8827    1.6095 H   0  0  0  0  0  0  0  0  0  0  0  0
    2.9185    2.7961    1.2775 H   0  0  0  0  0  0  0  0  0  0  0  0
    2.6183    0.6170    3.4312 H   0  0  0  0  0  0  0  0  0  0  0  0
    2.5318    2.3520    3.7288 H   0  0  0  0  0  0  0  0  0  0  0  0
    6.6892   -0.2519    0.5548 H   0  0  0  0  0  0  0  0  0  0  0  0
    8.5998   -1.5896   -0.3071 H   0  0  0  0  0  0  0  0  0  0  0  0
   10.8101   -0.9452    3.1047 H   0  0  0  0  0  0  0  0  0  0  0  0
    9.0186    0.4147    4.1378 H   0  0  0  0  0  0  0  0  0  0  0  0
    7.6856    2.4847    4.2332 H   0  0  0  0  0  0  0  0  0  0  0  0
  1  2  2  0  0  0  0
  2  3  1  0  0  0  0
  2 18  1  0  0  0  0
  3  4  1  0  0  0  0
  3 32  1  0  0  0  0
  3 33  1  0  0  0  0
  4  5  1  0  0  0  0
  5  6  2  0  0  0  0
  5 17  1  0  0  0  0
  6  7  1  0  0  0  0
  6 34  1  0  0  0  0
  7  8  2  0  0  0  0
  7 35  1  0  0  0  0
  8  9  1  0  0  0  0
  8 36  1  0  0  0  0
  9 10  1  0  0  0  0
  9 17  2  0  0  0  0
 10 11  1  0  0  0  0
 11 12  2  0  0  0  0
 11 16  1  0  0  0  0
 12 13  1  0  0  0  0
 12 37  1  0  0  0  0
 13 14  2  0  0  0  0
 13 38  1  0  0  0  0
 14 15  1  0  0  0  0
 14 39  1  0  0  0  0
 15 16  2  0  0  0  0
 15 40  1  0  0  0  0
 17 41  1  0  0  0  0
 18 19  1  0  0  0  0
 18 42  1  0  0  0  0
 19 20  1  0  0  0  0
 19 43  1  0  0  0  0
 19 44  1  0  0  0  0
 20 21  1  0  0  0  0
 20 45  1  0  0  0  0
 20 46  1  0  0  0  0
 21 22  2  0  0  0  0
 21 31  1  0  0  0  0
 22 23  1  0  0  0  0
 23 24  1  0  0  0  0
 23 30  2  0  0  0  0
 24 25  2  0  0  0  0
 24 29  1  0  0  0  0
 25 26  1  0  0  0  0
 25 47  1  0  0  0  0
 26 27  2  0  0  0  0
 26 48  1  0  0  0  0
 27 28  1  0  0  0  0
 28 29  2  0  0  0  0
 28 49  1  0  0  0  0
 29 50  1  0  0  0  0
 30 31  1  0  0  0  0
 30 51  1  0  0  0  0
M  END
$$$$
