
 OpenBabel01122422373D

 47 50  0  0  0  0  0  0  0  0999 V2000
    3.4120   -0.0388    1.6334 C   0  0  0  0  0  0  0  0  0  0  0  0
    2.7781    0.0803   -0.0181 S   0  0  0  0  0  0  0  0  0  0  0  0
    1.3316    0.1596    0.0576 O   0  0  0  0  0  0  0  0  0  0  0  0
    3.5424    1.0871   -0.7278 O   0  0  0  0  0  0  0  0  0  0  0  0
    3.1802   -1.4943   -0.7351 C   0  0  0  0  0  0  0  0  0  0  0  0
    4.3800   -1.6609   -1.4282 C   0  0  0  0  0  0  0  0  0  0  0  0
    4.6599   -2.8924   -2.0341 C   0  0  0  0  0  0  0  0  0  0  0  0
    3.7450   -3.9606   -1.9662 C   0  0  0  0  0  0  0  0  0  0  0  0
    4.0782   -5.2649   -2.5975 C   0  0  0  0  0  0  0  0  0  0  0  0
    3.1209   -5.9893   -3.1861 C   0  0  0  0  0  0  0  0  0  0  0  0
    3.4694   -7.2943   -3.7627 C   0  0  0  0  0  0  0  0  0  0  0  0
    2.5779   -7.9623   -4.2852 O   0  0  0  0  0  0  0  0  0  0  0  0
    4.8010   -7.6658   -3.6603 N   0  0  0  0  0  0  0  0  0  0  0  0
    5.1801   -8.9097   -4.1474 C   0  0  0  0  0  0  0  0  0  0  0  0
    6.4430   -9.3387   -4.0817 C   0  0  0  0  0  0  0  0  0  0  0  0
    7.4551   -8.4922   -3.5157 C   0  0  0  0  0  0  0  0  0  0  0  0
    7.1752   -7.2702   -3.0404 C   0  0  0  0  0  0  0  0  0  0  0  0
    8.2235   -6.5171   -2.5252 O   0  0  0  0  0  0  0  0  0  0  0  0
    8.1012   -5.0988   -2.6377 C   0  0  0  0  0  0  0  0  0  0  0  0
    9.4594   -4.4326   -2.6681 C   0  0  0  0  0  0  0  0  0  0  0  0
    9.6194   -3.2320   -3.3798 C   0  0  0  0  0  0  0  0  0  0  0  0
   10.8435   -2.5643   -3.3866 C   0  0  0  0  0  0  0  0  0  0  0  0
   11.9221   -3.0819   -2.6734 C   0  0  0  0  0  0  0  0  0  0  0  0
   11.7748   -4.2658   -1.9520 C   0  0  0  0  0  0  0  0  0  0  0  0
   10.5493   -4.9350   -1.9435 C   0  0  0  0  0  0  0  0  0  0  0  0
    5.7250   -6.8021   -3.0681 C   0  0  0  0  0  0  0  0  0  0  0  0
    5.3908   -5.6540   -2.5584 N   0  0  0  0  0  0  0  0  0  0  0  0
    2.5540   -3.7547   -1.2515 C   0  0  0  0  0  0  0  0  0  0  0  0
    1.6588   -4.7448   -1.1165 F   0  0  0  0  0  0  0  0  0  0  0  0
    2.2593   -2.5353   -0.6490 C   0  0  0  0  0  0  0  0  0  0  0  0
    3.1760    0.8928    2.1524 H   0  0  0  0  0  0  0  0  0  0  0  0
    4.4938   -0.1767    1.5912 H   0  0  0  0  0  0  0  0  0  0  0  0
    2.9320   -0.8770    2.1417 H   0  0  0  0  0  0  0  0  0  0  0  0
    5.0973   -0.8463   -1.5123 H   0  0  0  0  0  0  0  0  0  0  0  0
    5.5993   -3.0120   -2.5701 H   0  0  0  0  0  0  0  0  0  0  0  0
    2.0811   -5.6984   -3.2548 H   0  0  0  0  0  0  0  0  0  0  0  0
    4.3988   -9.5315   -4.5798 H   0  0  0  0  0  0  0  0  0  0  0  0
    6.7266  -10.3159   -4.4593 H   0  0  0  0  0  0  0  0  0  0  0  0
    8.4737   -8.8663   -3.4933 H   0  0  0  0  0  0  0  0  0  0  0  0
    7.5640   -4.7127   -1.7642 H   0  0  0  0  0  0  0  0  0  0  0  0
    7.5764   -4.8334   -3.5638 H   0  0  0  0  0  0  0  0  0  0  0  0
    8.7852   -2.8082   -3.9356 H   0  0  0  0  0  0  0  0  0  0  0  0
   10.9544   -1.6388   -3.9455 H   0  0  0  0  0  0  0  0  0  0  0  0
   12.8753   -2.5609   -2.6765 H   0  0  0  0  0  0  0  0  0  0  0  0
   12.6158   -4.6665   -1.3917 H   0  0  0  0  0  0  0  0  0  0  0  0
   10.4492   -5.8524   -1.3672 H   0  0  0  0  0  0  0  0  0  0  0  0
    1.3131   -2.4191   -0.1281 H   0  0  0  0  0  0  0  0  0  0  0  0
  1  2  1  0  0  0  0
  1 31  1  0  0  0  0
  1 32  1  0  0  0  0
  1 33  1  0  0  0  0
  2  3  2  0  0  0  0
  2  4  2  0  0  0  0
  2  5  1  0  0  0  0
  5  6  2  0  0  0  0
  5 30  1  0  0  0  0
  6  7  1  0  0  0  0
  6 34  1  0  0  0  0
  7  8  2  0  0  0  0
  7 35  1  0  0  0  0
  8  9  1  0  0  0  0
  8 28  1  0  0  0  0
  9 10  2  0  0  0  0
  9 27  1  0  0  0  0
 10 11  1  0  0  0  0
 10 36  1  0  0  0  0
 11 12  2  0  0  0  0
 11 13  1  0  0  0  0
 13 14  1  0  0  0  0
 13 26  1  0  0  0  0
 14 15  2  0  0  0  0
 14 37  1  0  0  0  0
 15 16  1  0  0  0  0
 15 38  1  0  0  0  0
 16 17  2  0  0  0  0
 16 39  1  0  0  0  0
 17 18  1  0  0  0  0
 17 26  1  0  0  0  0
 18 19  1  0  0  0  0
 19 20  1  0  0  0  0
 19 40  1  0  0  0  0
 19 41  1  0  0  0  0
 20 21  2  0  0  0  0
 20 25  1  0  0  0  0
 21 22  1  0  0  0  0
 21 42  1  0  0  0  0
 22 23  2  0  0  0  0
 22 43  1  0  0  0  0
 23 24  1  0  0  0  0
 23 44  1  0  0  0  0
 24 25  2  0  0  0  0
 24 45  1  0  0  0  0
 25 46  1  0  0  0  0
 26 27  2  0  0  0  0
 28 29  1  0  0  0  0
 28 30  2  0  0  0  0
 30 47  1  0  0  0  0
M  END
$$$$
