
 OpenBabel01122422373D

 51 54  0  0  1  0  0  0  0  0999 V2000
    2.2146   -2.3370   -0.3253 O   0  0  0  0  0  0  0  0  0  0  0  0
    2.3410   -1.4677   -1.1951 C   0  0  0  0  0  0  0  0  0  0  0  0
    1.0611   -0.9408   -1.8448 C   0  0  0  0  0  0  0  0  0  0  0  0
    1.0614    0.4491   -2.4776 C   0  0  3  0  0  0  0  0  0  0  0  0
    1.9983    0.4165   -3.5592 O   0  0  0  0  0  0  0  0  0  0  0  0
   -0.3682    0.8127   -2.9896 C   0  0  0  0  0  0  0  0  0  0  0  0
   -0.5808    2.1370   -3.7089 C   0  0  0  0  0  0  0  0  0  0  0  0
    0.4266    3.1045   -3.8337 C   0  0  0  0  0  0  0  0  0  0  0  0
    0.1898    4.2985   -4.5227 C   0  0  0  0  0  0  0  0  0  0  0  0
   -1.0604    4.5459   -5.1020 C   0  0  0  0  0  0  0  0  0  0  0  0
   -2.0733    3.6081   -4.9750 C   0  0  0  0  0  0  0  0  0  0  0  0
   -1.8390    2.4088   -4.2778 C   0  0  0  0  0  0  0  0  0  0  0  0
    3.5787   -1.0462   -1.6640 N   0  0  0  0  0  0  0  0  0  0  0  0
    4.7822   -1.1311   -0.8953 C   0  0  0  0  0  0  0  0  0  0  0  0
    4.6835   -1.1310    0.4990 C   0  0  0  0  0  0  0  0  0  0  0  0
    5.7596   -0.7603    1.2826 C   0  0  0  0  0  0  0  0  0  0  0  0
    6.9829   -0.4929    0.6905 C   0  0  0  0  0  0  0  0  0  0  0  0
    7.9305    0.2207    1.4143 N   0  0  0  0  0  0  0  0  0  0  0  0
    9.1571    0.0200    1.0740 C   0  0  0  0  0  0  0  0  0  0  0  0
    9.5448   -0.8760    0.1242 N   0  0  0  0  0  0  0  0  0  0  0  0
   10.5876   -1.7816    0.5534 C   0  0  0  0  0  0  0  0  0  0  0  0
   11.4668   -2.4383   -0.3000 C   0  0  0  0  0  0  0  0  0  0  0  0
   12.3585   -3.3974    0.2172 C   0  0  0  0  0  0  0  0  0  0  0  0
   12.3577   -3.7314    1.5740 C   0  0  0  0  0  0  0  0  0  0  0  0
   11.5142   -3.0614    2.4453 C   0  0  0  0  0  0  0  0  0  0  0  0
   10.6603   -2.0853    1.9416 C   0  0  0  0  0  0  0  0  0  0  0  0
    8.6555   -1.1836   -0.9344 C   0  0  0  0  0  0  0  0  0  0  0  0
    8.9613   -1.7229   -1.9952 O   0  0  0  0  0  0  0  0  0  0  0  0
    7.2018   -0.8768   -0.6295 C   0  0  0  0  0  0  0  0  0  0  0  0
    6.0804   -1.0889   -1.4714 C   0  0  0  0  0  0  0  0  0  0  0  0
    0.3089   -0.9356   -1.0416 H   0  0  0  0  0  0  0  0  0  0  0  0
    0.7510   -1.6915   -2.5802 H   0  0  0  0  0  0  0  0  0  0  0  0
    1.4001    1.1973   -1.7513 H   0  0  0  0  0  0  0  0  0  0  0  0
    1.5243    0.0959   -4.3496 H   0  0  0  0  0  0  0  0  0  0  0  0
   -1.0678    0.7893   -2.1382 H   0  0  0  0  0  0  0  0  0  0  0  0
   -0.6903    0.0278   -3.6898 H   0  0  0  0  0  0  0  0  0  0  0  0
    1.4343    2.9501   -3.4062 H   0  0  0  0  0  0  0  0  0  0  0  0
    0.9792    5.0329   -4.6223 H   0  0  0  0  0  0  0  0  0  0  0  0
   -1.2320    5.4683   -5.6523 H   0  0  0  0  0  0  0  0  0  0  0  0
   -3.0457    3.7951   -5.4164 H   0  0  0  0  0  0  0  0  0  0  0  0
   -2.6528    1.6941   -4.1907 H   0  0  0  0  0  0  0  0  0  0  0  0
    3.6051   -0.5307   -2.5426 H   0  0  0  0  0  0  0  0  0  0  0  0
    3.7385   -1.2893    1.0107 H   0  0  0  0  0  0  0  0  0  0  0  0
    5.6462   -0.6291    2.3522 H   0  0  0  0  0  0  0  0  0  0  0  0
    9.9785    0.5291    1.6088 H   0  0  0  0  0  0  0  0  0  0  0  0
   11.4960   -2.2059   -1.3611 H   0  0  0  0  0  0  0  0  0  0  0  0
   13.0516   -3.9076   -0.4480 H   0  0  0  0  0  0  0  0  0  0  0  0
   13.0056   -4.5170    1.9548 H   0  0  0  0  0  0  0  0  0  0  0  0
   11.4916   -3.3076    3.5036 H   0  0  0  0  0  0  0  0  0  0  0  0
    9.9896   -1.6152    2.6604 H   0  0  0  0  0  0  0  0  0  0  0  0
    6.2225   -1.2538   -2.5342 H   0  0  0  0  0  0  0  0  0  0  0  0
  1  2  2  0  0  0  0
  2  3  1  0  0  0  0
  2 13  1  0  0  0  0
  3  4  1  0  0  0  0
  3 31  1  0  0  0  0
  3 32  1  0  0  0  0
  4  5  1  0  0  0  0
  4  6  1  0  0  0  0
  4 33  1  0  0  0  0
  5 34  1  0  0  0  0
  6  7  1  0  0  0  0
  6 35  1  0  0  0  0
  6 36  1  0  0  0  0
  7  8  2  0  0  0  0
  7 12  1  0  0  0  0
  8  9  1  0  0  0  0
  8 37  1  0  0  0  0
  9 10  2  0  0  0  0
  9 38  1  0  0  0  0
 10 11  1  0  0  0  0
 10 39  1  0  0  0  0
 11 12  2  0  0  0  0
 11 40  1  0  0  0  0
 12 41  1  0  0  0  0
 13 14  1  0  0  0  0
 13 42  1  0  0  0  0
 14 15  2  0  0  0  0
 14 30  1  0  0  0  0
 15 16  1  0  0  0  0
 15 43  1  0  0  0  0
 16 17  2  0  0  0  0
 16 44  1  0  0  0  0
 17 18  1  0  0  0  0
 17 29  1  0  0  0  0
 18 19  2  0  0  0  0
 19 20  1  0  0  0  0
 19 45  1  0  0  0  0
 20 21  1  0  0  0  0
 20 27  1  0  0  0  0
 21 22  2  0  0  0  0
 21 26  1  0  0  0  0
 22 23  1  0  0  0  0
 22 46  1  0  0  0  0
 23 24  2  0  0  0  0
 23 47  1  0  0  0  0
 24 25  1  0  0  0  0
 24 48  1  0  0  0  0
 25 26  2  0  0  0  0
 25 49  1  0  0  0  0
 26 50  1  0  0  0  0
 27 28  2  0  0  0  0
 27 29  1  0  0  0  0
 29 30  2  0  0  0  0
 30 51  1  0  0  0  0
M  END
$$$$
