
 OpenBabel01122422373D

 45 48  0  0  0  0  0  0  0  0999 V2000
    0.6701   -0.2801   -0.0829 C   0  0  0  0  0  0  0  0  0  0  0  0
    1.7800   -1.1583    0.0690 O   0  0  0  0  0  0  0  0  0  0  0  0
    2.6778   -1.1874   -0.9634 C   0  0  0  0  0  0  0  0  0  0  0  0
    2.5260   -0.5362   -2.1870 C   0  0  0  0  0  0  0  0  0  0  0  0
    3.5136   -0.6464   -3.1609 C   0  0  0  0  0  0  0  0  0  0  0  0
    4.6629   -1.3919   -2.9054 C   0  0  0  0  0  0  0  0  0  0  0  0
    4.8678   -2.0271   -1.6651 C   0  0  0  0  0  0  0  0  0  0  0  0
    6.1542   -2.6733   -1.3609 C   0  0  0  0  0  0  0  0  0  0  0  0
    7.3469   -2.1467   -1.8297 C   0  0  0  0  0  0  0  0  0  0  0  0
    8.5623   -2.6471   -1.5685 N   0  0  0  0  0  0  0  0  0  0  0  0
    8.5962   -3.7378   -0.7834 C   0  0  0  0  0  0  0  0  0  0  0  0
    9.9635   -4.2581   -0.4585 C   0  0  0  0  0  0  0  0  0  0  0  0
   10.9464   -3.6341   -0.8502 O   0  0  0  0  0  0  0  0  0  0  0  0
    9.9968   -5.4552    0.2501 N   0  0  0  0  0  0  0  0  0  0  0  0
   11.1786   -6.0632    0.6349 C   0  0  0  0  0  0  0  0  0  0  0  0
   12.4316   -5.5067    0.6157 C   0  0  0  0  0  0  0  0  0  0  0  0
   13.3326   -6.4476    1.0413 N   0  0  0  0  0  0  0  0  0  0  0  0
   14.7417   -6.3152    1.1592 C   0  0  0  0  0  0  0  0  0  0  0  0
   15.5248   -7.4494    1.4242 C   0  0  0  0  0  0  0  0  0  0  0  0
   16.9163   -7.3387    1.5234 C   0  0  0  0  0  0  0  0  0  0  0  0
   17.5384   -6.1008    1.3686 C   0  0  0  0  0  0  0  0  0  0  0  0
   16.7672   -4.9703    1.1136 C   0  0  0  0  0  0  0  0  0  0  0  0
   15.3825   -5.0761    1.0099 C   0  0  0  0  0  0  0  0  0  0  0  0
   14.7082   -3.9394    0.7998 F   0  0  0  0  0  0  0  0  0  0  0  0
   12.6964   -7.6170    1.3495 N   0  0  0  0  0  0  0  0  0  0  0  0
   11.4016   -7.3600    1.1303 C   0  0  0  0  0  0  0  0  0  0  0  0
    7.5205   -4.3696   -0.2632 N   0  0  0  0  0  0  0  0  0  0  0  0
    6.3232   -3.8035   -0.5690 C   0  0  0  0  0  0  0  0  0  0  0  0
    3.8375   -1.9350   -0.7147 C   0  0  0  0  0  0  0  0  0  0  0  0
    0.0784   -0.3234    0.8360 H   0  0  0  0  0  0  0  0  0  0  0  0
    0.0267   -0.5992   -0.9096 H   0  0  0  0  0  0  0  0  0  0  0  0
    1.0018    0.7553   -0.2175 H   0  0  0  0  0  0  0  0  0  0  0  0
    1.6536    0.0665   -2.4156 H   0  0  0  0  0  0  0  0  0  0  0  0
    3.3984   -0.1387   -4.1154 H   0  0  0  0  0  0  0  0  0  0  0  0
    5.4121   -1.4521   -3.6937 H   0  0  0  0  0  0  0  0  0  0  0  0
    7.3745   -1.2494   -2.4427 H   0  0  0  0  0  0  0  0  0  0  0  0
    9.1157   -5.9278    0.4215 H   0  0  0  0  0  0  0  0  0  0  0  0
   12.7476   -4.5221    0.3145 H   0  0  0  0  0  0  0  0  0  0  0  0
   15.0656   -8.4304    1.5380 H   0  0  0  0  0  0  0  0  0  0  0  0
   17.5150   -8.2248    1.7196 H   0  0  0  0  0  0  0  0  0  0  0  0
   18.6186   -6.0149    1.4477 H   0  0  0  0  0  0  0  0  0  0  0  0
   17.2324   -3.9952    0.9977 H   0  0  0  0  0  0  0  0  0  0  0  0
   10.6806   -8.1462    1.3113 H   0  0  0  0  0  0  0  0  0  0  0  0
    5.4674   -4.3149   -0.1328 H   0  0  0  0  0  0  0  0  0  0  0  0
    3.9392   -2.4041    0.2619 H   0  0  0  0  0  0  0  0  0  0  0  0
  1  2  1  0  0  0  0
  1 30  1  0  0  0  0
  1 31  1  0  0  0  0
  1 32  1  0  0  0  0
  2  3  1  0  0  0  0
  3  4  2  0  0  0  0
  3 29  1  0  0  0  0
  4  5  1  0  0  0  0
  4 33  1  0  0  0  0
  5  6  2  0  0  0  0
  5 34  1  0  0  0  0
  6  7  1  0  0  0  0
  6 35  1  0  0  0  0
  7  8  1  0  0  0  0
  7 29  2  0  0  0  0
  8  9  2  0  0  0  0
  8 28  1  0  0  0  0
  9 10  1  0  0  0  0
  9 36  1  0  0  0  0
 10 11  2  0  0  0  0
 11 12  1  0  0  0  0
 11 27  1  0  0  0  0
 12 13  2  0  0  0  0
 12 14  1  0  0  0  0
 14 15  1  0  0  0  0
 14 37  1  0  0  0  0
 15 16  2  0  0  0  0
 15 26  1  0  0  0  0
 16 17  1  0  0  0  0
 16 38  1  0  0  0  0
 17 18  1  0  0  0  0
 17 25  1  0  0  0  0
 18 19  2  0  0  0  0
 18 23  1  0  0  0  0
 19 20  1  0  0  0  0
 19 39  1  0  0  0  0
 20 21  2  0  0  0  0
 20 40  1  0  0  0  0
 21 22  1  0  0  0  0
 21 41  1  0  0  0  0
 22 23  2  0  0  0  0
 22 42  1  0  0  0  0
 23 24  1  0  0  0  0
 25 26  2  0  0  0  0
 26 43  1  0  0  0  0
 27 28  2  0  0  0  0
 28 44  1  0  0  0  0
 29 45  1  0  0  0  0
M  END
$$$$
