
 OpenBabel01122422373D

 43 46  0  0  0  0  0  0  0  0999 V2000
   -3.5625    0.2048   -0.3218 N   0  0  0  0  0  0  0  0  0  0  0  0
   -2.4208    0.4010   -0.2536 C   0  0  0  0  0  0  0  0  0  0  0  0
   -1.0146    0.6578   -0.1564 C   0  0  0  0  0  0  0  0  0  0  0  0
   -0.1442    0.2312   -1.1638 C   0  0  0  0  0  0  0  0  0  0  0  0
    1.2245    0.5100   -1.0722 C   0  0  0  0  0  0  0  0  0  0  0  0
    1.7334    1.2063    0.0378 C   0  0  0  0  0  0  0  0  0  0  0  0
    3.1210    1.4897    0.1202 N   0  0  0  0  0  0  0  0  0  0  0  0
    3.8240    2.0903    1.1370 C   0  0  0  0  0  0  0  0  0  0  0  0
    5.1342    2.1553    0.7261 C   0  0  0  0  0  0  0  0  0  0  0  0
    6.2087    2.6808    1.4953 C   0  0  0  0  0  0  0  0  0  0  0  0
    7.0961    3.0924    2.1169 N   0  0  0  0  0  0  0  0  0  0  0  0
    5.1543    1.5964   -0.5695 C   0  0  0  0  0  0  0  0  0  0  0  0
    6.2585    1.5038   -1.4030 N   0  0  0  0  0  0  0  0  0  0  0  0
    6.2222    0.9281   -2.6617 C   0  0  0  0  0  0  0  0  0  0  0  0
    5.2536    0.4049   -3.2099 O   0  0  0  0  0  0  0  0  0  0  0  0
    7.5569    0.9842   -3.3862 C   0  0  0  0  0  0  0  0  0  0  0  0
    7.7163    2.2109   -4.2504 C   0  0  0  0  0  0  0  0  0  0  0  0
    8.7574    3.1139   -4.0110 C   0  0  0  0  0  0  0  0  0  0  0  0
    8.9323    4.2315   -4.8318 C   0  0  0  0  0  0  0  0  0  0  0  0
    8.0677    4.4745   -5.9099 C   0  0  0  0  0  0  0  0  0  0  0  0
    8.2236    5.5879   -6.7446 C   0  0  0  0  0  0  0  0  0  0  0  0
    7.3347    5.7666   -7.7929 C   0  0  0  0  0  0  0  0  0  0  0  0
    6.3189    4.9238   -8.0678 N   0  0  0  0  0  0  0  0  0  0  0  0
    6.1856    3.8510   -7.2516 C   0  0  0  0  0  0  0  0  0  0  0  0
    7.0176    3.5723   -6.1625 C   0  0  0  0  0  0  0  0  0  0  0  0
    6.8514    2.4458   -5.3323 C   0  0  0  0  0  0  0  0  0  0  0  0
    3.9395    1.1576   -0.8994 N   0  0  0  0  0  0  0  0  0  0  0  0
    0.8502    1.6169    1.0385 C   0  0  0  0  0  0  0  0  0  0  0  0
    1.2588    2.3001    2.1137 F   0  0  0  0  0  0  0  0  0  0  0  0
   -0.5140    1.3480    0.9456 C   0  0  0  0  0  0  0  0  0  0  0  0
   -0.5223   -0.3172   -2.0268 H   0  0  0  0  0  0  0  0  0  0  0  0
    1.8821    0.1745   -1.8783 H   0  0  0  0  0  0  0  0  0  0  0  0
    3.3624    2.4141    2.0563 H   0  0  0  0  0  0  0  0  0  0  0  0
    7.1184    1.9253   -1.0784 H   0  0  0  0  0  0  0  0  0  0  0  0
    7.6419    0.0879   -4.0139 H   0  0  0  0  0  0  0  0  0  0  0  0
    8.3709    0.9118   -2.6531 H   0  0  0  0  0  0  0  0  0  0  0  0
    9.4556    2.9516   -3.1929 H   0  0  0  0  0  0  0  0  0  0  0  0
    9.7586    4.9092   -4.6275 H   0  0  0  0  0  0  0  0  0  0  0  0
    9.0206    6.3067   -6.5873 H   0  0  0  0  0  0  0  0  0  0  0  0
    7.4216    6.6205   -8.4586 H   0  0  0  0  0  0  0  0  0  0  0  0
    5.3582    3.1941   -7.5088 H   0  0  0  0  0  0  0  0  0  0  0  0
    6.0421    1.7438   -5.5373 H   0  0  0  0  0  0  0  0  0  0  0  0
   -1.1667    1.6939    1.7436 H   0  0  0  0  0  0  0  0  0  0  0  0
  1  2  3  0  0  0  0
  2  3  1  0  0  0  0
  3  4  2  0  0  0  0
  3 30  1  0  0  0  0
  4  5  1  0  0  0  0
  4 31  1  0  0  0  0
  5  6  2  0  0  0  0
  5 32  1  0  0  0  0
  6  7  1  0  0  0  0
  6 28  1  0  0  0  0
  7  8  1  0  0  0  0
  7 27  1  0  0  0  0
  8  9  2  0  0  0  0
  8 33  1  0  0  0  0
  9 10  1  0  0  0  0
  9 12  1  0  0  0  0
 10 11  3  0  0  0  0
 12 13  1  0  0  0  0
 12 27  2  0  0  0  0
 13 14  1  0  0  0  0
 13 34  1  0  0  0  0
 14 15  2  0  0  0  0
 14 16  1  0  0  0  0
 16 17  1  0  0  0  0
 16 35  1  0  0  0  0
 16 36  1  0  0  0  0
 17 18  2  0  0  0  0
 17 26  1  0  0  0  0
 18 19  1  0  0  0  0
 18 37  1  0  0  0  0
 19 20  2  0  0  0  0
 19 38  1  0  0  0  0
 20 21  1  0  0  0  0
 20 25  1  0  0  0  0
 21 22  2  0  0  0  0
 21 39  1  0  0  0  0
 22 23  1  0  0  0  0
 22 40  1  0  0  0  0
 23 24  2  0  0  0  0
 24 25  1  0  0  0  0
 24 41  1  0  0  0  0
 25 26  2  0  0  0  0
 26 42  1  0  0  0  0
 28 29  1  0  0  0  0
 28 30  2  0  0  0  0
 30 43  1  0  0  0  0
M  END
$$$$
