
 OpenBabel01122422353D

 48 51  0  0  0  0  0  0  0  0999 V2000
    2.9111   -1.4140    0.6760 N   0  0  0  0  0  0  0  0  0  0  0  0
    3.8513   -0.5851    0.5390 C   0  0  0  0  0  0  0  0  0  0  0  0
    4.9847    0.4142    0.3737 C   0  0  0  0  0  0  0  0  0  0  0  0
    4.4549    1.5639   -0.4127 N   0  0  0  0  0  0  0  0  0  0  0  0
    3.8303    2.6035    0.2663 C   0  0  0  0  0  0  0  0  0  0  0  0
    3.0906    3.5651   -0.3351 C   0  0  0  0  0  0  0  0  0  0  0  0
    2.4015    4.5832    0.3400 N   0  0  0  0  0  0  0  0  0  0  0  0
    2.3138    4.6765    1.7182 C   0  0  0  0  0  0  0  0  0  0  0  0
    2.8336    3.8295    2.4533 O   0  0  0  0  0  0  0  0  0  0  0  0
    1.6290    5.7496    2.4082 C   0  0  0  0  0  0  0  0  0  0  0  0
    0.9420    6.9359    2.1871 C   0  0  0  0  0  0  0  0  0  0  0  0
    0.6390    7.5253    3.4844 C   0  0  0  0  0  0  0  0  0  0  0  0
    0.0193    8.7021    3.9667 C   0  0  0  0  0  0  0  0  0  0  0  0
   -0.0189    8.9562    5.3633 C   0  0  0  0  0  0  0  0  0  0  0  0
    0.5301    8.0570    6.2787 C   0  0  0  0  0  0  0  0  0  0  0  0
    0.5766    8.1901    7.6407 O   0  0  0  0  0  0  0  0  0  0  0  0
   -0.3718    9.0759    8.2273 C   0  0  0  0  0  0  0  0  0  0  0  0
   -0.6034    8.7746    9.6959 C   0  0  0  0  0  0  0  0  0  0  0  0
    0.1520    7.8425   10.4221 C   0  0  0  0  0  0  0  0  0  0  0  0
   -0.1423    7.5805   11.7646 C   0  0  0  0  0  0  0  0  0  0  0  0
   -1.1866    8.2518   12.3983 C   0  0  0  0  0  0  0  0  0  0  0  0
   -1.9317    9.1943   11.6954 C   0  0  0  0  0  0  0  0  0  0  0  0
   -1.6391    9.4565   10.3563 C   0  0  0  0  0  0  0  0  0  0  0  0
    1.1261    6.8905    5.8185 C   0  0  0  0  0  0  0  0  0  0  0  0
    1.1474    6.6625    4.4431 C   0  0  0  0  0  0  0  0  0  0  0  0
    1.6446    5.5926    3.7809 N   0  0  0  0  0  0  0  0  0  0  0  0
    2.9931    3.5042   -1.7845 C   0  0  0  0  0  0  0  0  0  0  0  0
    3.5851    2.5175   -2.4808 C   0  0  0  0  0  0  0  0  0  0  0  0
    4.3564    1.4404   -1.7921 C   0  0  0  0  0  0  0  0  0  0  0  0
    4.8338    0.5161   -2.4410 O   0  0  0  0  0  0  0  0  0  0  0  0
    5.8115   -0.0495   -0.1740 H   0  0  0  0  0  0  0  0  0  0  0  0
    5.3501    0.7606    1.3457 H   0  0  0  0  0  0  0  0  0  0  0  0
    3.9753    2.5469    1.3325 H   0  0  0  0  0  0  0  0  0  0  0  0
    1.8843    5.2601   -0.2040 H   0  0  0  0  0  0  0  0  0  0  0  0
    0.7080    7.3898    1.2322 H   0  0  0  0  0  0  0  0  0  0  0  0
   -0.4169    9.4248    3.2829 H   0  0  0  0  0  0  0  0  0  0  0  0
   -0.4724    9.8829    5.7027 H   0  0  0  0  0  0  0  0  0  0  0  0
   -1.3406    8.9707    7.7243 H   0  0  0  0  0  0  0  0  0  0  0  0
   -0.0022   10.1033    8.1329 H   0  0  0  0  0  0  0  0  0  0  0  0
    0.9686    7.3009    9.9492 H   0  0  0  0  0  0  0  0  0  0  0  0
    0.4399    6.8453   12.3150 H   0  0  0  0  0  0  0  0  0  0  0  0
   -1.4208    8.0394   13.4381 H   0  0  0  0  0  0  0  0  0  0  0  0
   -2.7463    9.7207   12.1855 H   0  0  0  0  0  0  0  0  0  0  0  0
   -2.2360   10.1909    9.8200 H   0  0  0  0  0  0  0  0  0  0  0  0
    1.5609    6.1764    6.5120 H   0  0  0  0  0  0  0  0  0  0  0  0
    2.0697    4.7848    4.2151 H   0  0  0  0  0  0  0  0  0  0  0  0
    2.4205    4.2567   -2.3156 H   0  0  0  0  0  0  0  0  0  0  0  0
    3.5129    2.4321   -3.5586 H   0  0  0  0  0  0  0  0  0  0  0  0
  1  2  3  0  0  0  0
  2  3  1  0  0  0  0
  3  4  1  0  0  0  0
  3 31  1  0  0  0  0
  3 32  1  0  0  0  0
  4  5  1  0  0  0  0
  4 29  1  0  0  0  0
  5  6  2  0  0  0  0
  5 33  1  0  0  0  0
  6  7  1  0  0  0  0
  6 27  1  0  0  0  0
  7  8  1  0  0  0  0
  7 34  1  0  0  0  0
  8  9  2  0  0  0  0
  8 10  1  0  0  0  0
 10 11  2  0  0  0  0
 10 26  1  0  0  0  0
 11 12  1  0  0  0  0
 11 35  1  0  0  0  0
 12 13  2  0  0  0  0
 12 25  1  0  0  0  0
 13 14  1  0  0  0  0
 13 36  1  0  0  0  0
 14 15  2  0  0  0  0
 14 37  1  0  0  0  0
 15 16  1  0  0  0  0
 15 24  1  0  0  0  0
 16 17  1  0  0  0  0
 17 18  1  0  0  0  0
 17 38  1  0  0  0  0
 17 39  1  0  0  0  0
 18 19  2  0  0  0  0
 18 23  1  0  0  0  0
 19 20  1  0  0  0  0
 19 40  1  0  0  0  0
 20 21  2  0  0  0  0
 20 41  1  0  0  0  0
 21 22  1  0  0  0  0
 21 42  1  0  0  0  0
 22 23  2  0  0  0  0
 22 43  1  0  0  0  0
 23 44  1  0  0  0  0
 24 25  2  0  0  0  0
 24 45  1  0  0  0  0
 25 26  1  0  0  0  0
 26 46  1  0  0  0  0
 27 28  2  0  0  0  0
 27 47  1  0  0  0  0
 28 29  1  0  0  0  0
 28 48  1  0  0  0  0
 29 30  2  0  0  0  0
M  END
$$$$
