
 OpenBabel01122422373D

 43 46  0  0  0  0  0  0  0  0999 V2000
    0.9346    0.1564    0.1258 O   0  0  0  0  0  0  0  0  0  0  0  0
    2.1591    0.1030    0.0777 C   0  0  0  0  0  0  0  0  0  0  0  0
    2.8962   -1.0496   -0.1590 N   0  0  0  0  0  0  0  0  0  0  0  0
    2.2754   -2.2956   -0.3998 C   0  0  0  0  0  0  0  0  0  0  0  0
    1.2946   -2.7455    0.4966 C   0  0  0  0  0  0  0  0  0  0  0  0
    0.6882   -3.9826    0.3097 C   0  0  0  0  0  0  0  0  0  0  0  0
   -0.2187   -4.4141    1.1959 F   0  0  0  0  0  0  0  0  0  0  0  0
    1.0166   -4.7823   -0.7752 C   0  0  0  0  0  0  0  0  0  0  0  0
    1.9906   -4.3477   -1.6752 C   0  0  0  0  0  0  0  0  0  0  0  0
    2.6396   -3.1122   -1.4865 C   0  0  0  0  0  0  0  0  0  0  0  0
    3.6128   -2.7106   -2.5178 C   0  0  0  0  0  0  0  0  0  0  0  0
    4.3130   -3.5366   -3.2437 N   0  0  0  0  0  0  0  0  0  0  0  0
    5.0444   -2.7155   -4.0616 N   0  0  0  0  0  0  0  0  0  0  0  0
    4.7353   -1.3847   -3.8222 C   0  0  0  0  0  0  0  0  0  0  0  0
    5.1649   -0.4065   -4.4006 O   0  0  0  0  0  0  0  0  0  0  0  0
    3.8229   -1.4020   -2.8142 N   0  0  0  0  0  0  0  0  0  0  0  0
    2.9678    1.3545    0.1789 C   0  0  0  0  0  0  0  0  0  0  0  0
    2.3273    2.5639    0.4236 C   0  0  0  0  0  0  0  0  0  0  0  0
    3.1036    3.7121    0.5213 C   0  0  0  0  0  0  0  0  0  0  0  0
    4.4842    3.6101    0.3845 C   0  0  0  0  0  0  0  0  0  0  0  0
    5.0353    2.3553    0.1580 C   0  0  0  0  0  0  0  0  0  0  0  0
    6.4203    2.2974    0.0710 O   0  0  0  0  0  0  0  0  0  0  0  0
    7.0349    1.1667    0.5597 C   0  0  0  0  0  0  0  0  0  0  0  0
    8.1547    0.7102   -0.1361 C   0  0  0  0  0  0  0  0  0  0  0  0
    8.8324   -0.4272    0.3058 C   0  0  0  0  0  0  0  0  0  0  0  0
    8.3977   -1.1005    1.4480 C   0  0  0  0  0  0  0  0  0  0  0  0
    7.3018   -0.6236    2.1652 C   0  0  0  0  0  0  0  0  0  0  0  0
    6.6320    0.5203    1.7329 C   0  0  0  0  0  0  0  0  0  0  0  0
    4.3081    1.2208    0.0154 N   0  0  0  0  0  0  0  0  0  0  0  0
    3.8731   -0.9089   -0.4176 H   0  0  0  0  0  0  0  0  0  0  0  0
    1.0158   -2.1579    1.3668 H   0  0  0  0  0  0  0  0  0  0  0  0
    0.5128   -5.7339   -0.9150 H   0  0  0  0  0  0  0  0  0  0  0  0
    2.2259   -4.9665   -2.5396 H   0  0  0  0  0  0  0  0  0  0  0  0
    5.6695   -3.0632   -4.7744 H   0  0  0  0  0  0  0  0  0  0  0  0
    3.3541   -0.5850   -2.4657 H   0  0  0  0  0  0  0  0  0  0  0  0
    1.2478    2.6090    0.5350 H   0  0  0  0  0  0  0  0  0  0  0  0
    2.6364    4.6743    0.7116 H   0  0  0  0  0  0  0  0  0  0  0  0
    5.1193    4.4847    0.4731 H   0  0  0  0  0  0  0  0  0  0  0  0
    8.4952    1.2321   -1.0264 H   0  0  0  0  0  0  0  0  0  0  0  0
    9.6977   -0.7907   -0.2424 H   0  0  0  0  0  0  0  0  0  0  0  0
    8.9174   -1.9942    1.7837 H   0  0  0  0  0  0  0  0  0  0  0  0
    6.9677   -1.1405    3.0608 H   0  0  0  0  0  0  0  0  0  0  0  0
    5.7916    0.8904    2.3129 H   0  0  0  0  0  0  0  0  0  0  0  0
  1  2  2  0  0  0  0
  2  3  1  0  0  0  0
  2 17  1  0  0  0  0
  3  4  1  0  0  0  0
  3 30  1  0  0  0  0
  4  5  2  0  0  0  0
  4 10  1  0  0  0  0
  5  6  1  0  0  0  0
  5 31  1  0  0  0  0
  6  7  1  0  0  0  0
  6  8  2  0  0  0  0
  8  9  1  0  0  0  0
  8 32  1  0  0  0  0
  9 10  2  0  0  0  0
  9 33  1  0  0  0  0
 10 11  1  0  0  0  0
 11 12  2  0  0  0  0
 11 16  1  0  0  0  0
 12 13  1  0  0  0  0
 13 14  1  0  0  0  0
 13 34  1  0  0  0  0
 14 15  2  0  0  0  0
 14 16  1  0  0  0  0
 16 35  1  0  0  0  0
 17 18  2  0  0  0  0
 17 29  1  0  0  0  0
 18 19  1  0  0  0  0
 18 36  1  0  0  0  0
 19 20  2  0  0  0  0
 19 37  1  0  0  0  0
 20 21  1  0  0  0  0
 20 38  1  0  0  0  0
 21 22  1  0  0  0  0
 21 29  2  0  0  0  0
 22 23  1  0  0  0  0
 23 24  2  0  0  0  0
 23 28  1  0  0  0  0
 24 25  1  0  0  0  0
 24 39  1  0  0  0  0
 25 26  2  0  0  0  0
 25 40  1  0  0  0  0
 26 27  1  0  0  0  0
 26 41  1  0  0  0  0
 27 28  2  0  0  0  0
 27 42  1  0  0  0  0
 28 43  1  0  0  0  0
M  END
$$$$
