
 OpenBabel01122422373D

 41 44  0  0  0  0  0  0  0  0999 V2000
    1.2576    0.5836   -0.6966 O   0  0  0  0  0  0  0  0  0  0  0  0
    2.3486    0.1567   -0.3388 C   0  0  0  0  0  0  0  0  0  0  0  0
    2.8388   -1.1233   -0.5270 N   0  0  0  0  0  0  0  0  0  0  0  0
    2.1457   -2.1647   -1.1760 C   0  0  0  0  0  0  0  0  0  0  0  0
    1.0307   -1.9618   -1.9865 C   0  0  0  0  0  0  0  0  0  0  0  0
    0.3607   -3.0517   -2.5326 C   0  0  0  0  0  0  0  0  0  0  0  0
    0.8502   -4.3173   -2.2663 C   0  0  0  0  0  0  0  0  0  0  0  0
    0.1622   -5.3818   -2.8281 O   0  0  0  0  0  0  0  0  0  0  0  0
    0.8954   -6.4938   -3.1742 C   0  0  0  0  0  0  0  0  0  0  0  0
    2.1876   -6.4287   -3.7007 C   0  0  0  0  0  0  0  0  0  0  0  0
    2.8476   -7.6017   -4.0341 C   0  0  0  0  0  0  0  0  0  0  0  0
    4.1004   -7.5392   -4.5043 F   0  0  0  0  0  0  0  0  0  0  0  0
    2.2289   -8.8378   -3.8891 C   0  0  0  0  0  0  0  0  0  0  0  0
    0.9253   -8.9032   -3.3965 C   0  0  0  0  0  0  0  0  0  0  0  0
    0.2566   -7.7292   -3.0414 C   0  0  0  0  0  0  0  0  0  0  0  0
    1.9345   -4.5569   -1.4932 N   0  0  0  0  0  0  0  0  0  0  0  0
    2.5682   -3.4776   -0.9879 C   0  0  0  0  0  0  0  0  0  0  0  0
    3.2124    1.0592    0.4589 C   0  0  0  0  0  0  0  0  0  0  0  0
    2.5887    2.0185    1.2751 C   0  0  0  0  0  0  0  0  0  0  0  0
    3.3519    2.8737    2.0698 C   0  0  0  0  0  0  0  0  0  0  0  0
    4.7395    2.7550    2.0400 C   0  0  0  0  0  0  0  0  0  0  0  0
    5.5885    3.6021    2.8740 C   0  0  0  0  0  0  0  0  0  0  0  0
    6.8805    3.5168    2.9104 N   0  0  0  0  0  0  0  0  0  0  0  0
    7.4738    2.5812    2.1085 N   0  0  0  0  0  0  0  0  0  0  0  0
    6.8287    1.7179    1.2532 C   0  0  0  0  0  0  0  0  0  0  0  0
    7.4150    0.9045    0.5561 O   0  0  0  0  0  0  0  0  0  0  0  0
    5.3622    1.8189    1.2234 C   0  0  0  0  0  0  0  0  0  0  0  0
    4.6059    0.9722    0.4126 C   0  0  0  0  0  0  0  0  0  0  0  0
    3.6716   -1.3939   -0.0176 H   0  0  0  0  0  0  0  0  0  0  0  0
    0.6657   -0.9674   -2.2205 H   0  0  0  0  0  0  0  0  0  0  0  0
   -0.5128   -2.9080   -3.1577 H   0  0  0  0  0  0  0  0  0  0  0  0
    2.7011   -5.4831   -3.8347 H   0  0  0  0  0  0  0  0  0  0  0  0
    2.7670   -9.7388   -4.1633 H   0  0  0  0  0  0  0  0  0  0  0  0
    0.4328   -9.8650   -3.2849 H   0  0  0  0  0  0  0  0  0  0  0  0
   -0.7569   -7.7780   -2.6520 H   0  0  0  0  0  0  0  0  0  0  0  0
    3.4425   -3.7191   -0.3900 H   0  0  0  0  0  0  0  0  0  0  0  0
    1.5008    2.0901    1.2960 H   0  0  0  0  0  0  0  0  0  0  0  0
    2.8578    3.6065    2.7020 H   0  0  0  0  0  0  0  0  0  0  0  0
    5.0942    4.3536    3.5124 H   0  0  0  0  0  0  0  0  0  0  0  0
    8.4875    2.5218    2.1592 H   0  0  0  0  0  0  0  0  0  0  0  0
    5.1110    0.2718   -0.2479 H   0  0  0  0  0  0  0  0  0  0  0  0
  1  2  2  0  0  0  0
  2  3  1  0  0  0  0
  2 18  1  0  0  0  0
  3  4  1  0  0  0  0
  3 29  1  0  0  0  0
  4  5  2  0  0  0  0
  4 17  1  0  0  0  0
  5  6  1  0  0  0  0
  5 30  1  0  0  0  0
  6  7  2  0  0  0  0
  6 31  1  0  0  0  0
  7  8  1  0  0  0  0
  7 16  1  0  0  0  0
  8  9  1  0  0  0  0
  9 10  2  0  0  0  0
  9 15  1  0  0  0  0
 10 11  1  0  0  0  0
 10 32  1  0  0  0  0
 11 12  1  0  0  0  0
 11 13  2  0  0  0  0
 13 14  1  0  0  0  0
 13 33  1  0  0  0  0
 14 15  2  0  0  0  0
 14 34  1  0  0  0  0
 15 35  1  0  0  0  0
 16 17  2  0  0  0  0
 17 36  1  0  0  0  0
 18 19  2  0  0  0  0
 18 28  1  0  0  0  0
 19 20  1  0  0  0  0
 19 37  1  0  0  0  0
 20 21  2  0  0  0  0
 20 38  1  0  0  0  0
 21 22  1  0  0  0  0
 21 27  1  0  0  0  0
 22 23  2  0  0  0  0
 22 39  1  0  0  0  0
 23 24  1  0  0  0  0
 24 25  1  0  0  0  0
 24 40  1  0  0  0  0
 25 26  2  0  0  0  0
 25 27  1  0  0  0  0
 27 28  2  0  0  0  0
 28 41  1  0  0  0  0
M  END
$$$$
