
 OpenBabel01122422373D

 49 52  0  0  0  0  0  0  0  0999 V2000
    1.7372   -0.6734    0.8295 C   0  0  0  0  0  0  0  0  0  0  0  0
    3.1355   -0.4889    0.6326 O   0  0  0  0  0  0  0  0  0  0  0  0
    3.5836    0.7978    0.7463 C   0  0  0  0  0  0  0  0  0  0  0  0
    4.7141    1.1093   -0.0074 C   0  0  0  0  0  0  0  0  0  0  0  0
    5.2686    2.3948    0.0282 C   0  0  0  0  0  0  0  0  0  0  0  0
    4.7063    3.3990    0.8255 C   0  0  0  0  0  0  0  0  0  0  0  0
    5.2182    4.7918    0.8779 C   0  0  0  0  0  0  0  0  0  0  0  0
    6.2424    5.3326   -0.0834 C   0  0  0  0  0  0  0  0  0  0  0  0
    6.3811    4.8441   -1.2026 O   0  0  0  0  0  0  0  0  0  0  0  0
    6.9968    6.3956    0.3507 N   0  0  0  0  0  0  0  0  0  0  0  0
    7.9695    7.0344   -0.5085 C   0  0  0  0  0  0  0  0  0  0  0  0
    9.3625    6.4863   -0.3377 C   0  0  0  0  0  0  0  0  0  0  0  0
    9.9164    5.7265   -1.3861 C   0  0  0  0  0  0  0  0  0  0  0  0
   11.2373    5.2808   -1.3339 C   0  0  0  0  0  0  0  0  0  0  0  0
   12.0163    5.5542   -0.2163 C   0  0  0  0  0  0  0  0  0  0  0  0
   11.4676    6.2555    0.8559 C   0  0  0  0  0  0  0  0  0  0  0  0
   10.1548    6.7511    0.7934 C   0  0  0  0  0  0  0  0  0  0  0  0
    9.5966    7.4469    1.8521 O   0  0  0  0  0  0  0  0  0  0  0  0
   10.4220    8.3478    2.5185 C   0  0  0  0  0  0  0  0  0  0  0  0
   10.2678    8.4685    3.8928 C   0  0  0  0  0  0  0  0  0  0  0  0
   11.0946    9.3627    4.5717 C   0  0  0  0  0  0  0  0  0  0  0  0
   12.0387   10.0958    3.8588 C   0  0  0  0  0  0  0  0  0  0  0  0
   12.1112    9.9129    2.4883 C   0  0  0  0  0  0  0  0  0  0  0  0
   11.3122    9.0715    1.8013 N   0  0  0  0  0  0  0  0  0  0  0  0
    4.6277    5.6556    1.7250 C   0  0  0  0  0  0  0  0  0  0  0  0
    3.5199    5.2637    2.6158 C   0  0  0  0  0  0  0  0  0  0  0  0
    3.0454    6.0639    3.4134 O   0  0  0  0  0  0  0  0  0  0  0  0
    3.0468    3.9941    2.4880 N   0  0  0  0  0  0  0  0  0  0  0  0
    3.5988    3.0486    1.6164 C   0  0  0  0  0  0  0  0  0  0  0  0
    3.0350    1.7671    1.5805 C   0  0  0  0  0  0  0  0  0  0  0  0
    1.5003   -1.7132    0.5836 H   0  0  0  0  0  0  0  0  0  0  0  0
    1.1572   -0.0288    0.1600 H   0  0  0  0  0  0  0  0  0  0  0  0
    1.4541   -0.5117    1.8739 H   0  0  0  0  0  0  0  0  0  0  0  0
    5.1639    0.3499   -0.6437 H   0  0  0  0  0  0  0  0  0  0  0  0
    6.1440    2.5841   -0.5884 H   0  0  0  0  0  0  0  0  0  0  0  0
    6.9583    6.7160    1.3057 H   0  0  0  0  0  0  0  0  0  0  0  0
    7.9619    8.1088   -0.2941 H   0  0  0  0  0  0  0  0  0  0  0  0
    7.6467    6.9308   -1.5527 H   0  0  0  0  0  0  0  0  0  0  0  0
    9.3176    5.4920   -2.2653 H   0  0  0  0  0  0  0  0  0  0  0  0
   11.6572    4.7265   -2.1690 H   0  0  0  0  0  0  0  0  0  0  0  0
   13.0511    5.2261   -0.1760 H   0  0  0  0  0  0  0  0  0  0  0  0
   12.0890    6.4399    1.7280 H   0  0  0  0  0  0  0  0  0  0  0  0
    9.5390    7.8712    4.4282 H   0  0  0  0  0  0  0  0  0  0  0  0
   11.0116    9.4822    5.6488 H   0  0  0  0  0  0  0  0  0  0  0  0
   12.7041   10.7921    4.3574 H   0  0  0  0  0  0  0  0  0  0  0  0
   12.8401   10.4482    1.8867 H   0  0  0  0  0  0  0  0  0  0  0  0
    4.8793    6.7102    1.7863 H   0  0  0  0  0  0  0  0  0  0  0  0
    2.2719    3.7482    3.0899 H   0  0  0  0  0  0  0  0  0  0  0  0
    2.1893    1.5387    2.2189 H   0  0  0  0  0  0  0  0  0  0  0  0
  1  2  1  0  0  0  0
  1 31  1  0  0  0  0
  1 32  1  0  0  0  0
  1 33  1  0  0  0  0
  2  3  1  0  0  0  0
  3  4  2  0  0  0  0
  3 30  1  0  0  0  0
  4  5  1  0  0  0  0
  4 34  1  0  0  0  0
  5  6  2  0  0  0  0
  5 35  1  0  0  0  0
  6  7  1  0  0  0  0
  6 29  1  0  0  0  0
  7  8  1  0  0  0  0
  7 25  2  0  0  0  0
  8  9  2  0  0  0  0
  8 10  1  0  0  0  0
 10 11  1  0  0  0  0
 10 36  1  0  0  0  0
 11 12  1  0  0  0  0
 11 37  1  0  0  0  0
 11 38  1  0  0  0  0
 12 13  2  0  0  0  0
 12 17  1  0  0  0  0
 13 14  1  0  0  0  0
 13 39  1  0  0  0  0
 14 15  2  0  0  0  0
 14 40  1  0  0  0  0
 15 16  1  0  0  0  0
 15 41  1  0  0  0  0
 16 17  2  0  0  0  0
 16 42  1  0  0  0  0
 17 18  1  0  0  0  0
 18 19  1  0  0  0  0
 19 20  2  0  0  0  0
 19 24  1  0  0  0  0
 20 21  1  0  0  0  0
 20 43  1  0  0  0  0
 21 22  2  0  0  0  0
 21 44  1  0  0  0  0
 22 23  1  0  0  0  0
 22 45  1  0  0  0  0
 23 24  2  0  0  0  0
 23 46  1  0  0  0  0
 25 26  1  0  0  0  0
 25 47  1  0  0  0  0
 26 27  2  0  0  0  0
 26 28  1  0  0  0  0
 28 29  1  0  0  0  0
 28 48  1  0  0  0  0
 29 30  2  0  0  0  0
 30 49  1  0  0  0  0
M  END
$$$$
