
 OpenBabel01122422373D

 44 47  0  0  0  0  0  0  0  0999 V2000
    3.6283    2.6422   -0.1430 O   0  0  0  0  0  0  0  0  0  0  0  0
    3.6018    1.4263   -0.2424 C   0  0  0  0  0  0  0  0  0  0  0  0
    2.9395    0.7373   -1.2197 N   0  0  0  0  0  0  0  0  0  0  0  0
    2.2462    1.4077   -2.1629 C   0  0  0  0  0  0  0  0  0  0  0  0
    1.2329    2.2212   -1.8585 C   0  0  0  0  0  0  0  0  0  0  0  0
    0.3719    2.6958   -2.8249 N   0  0  0  0  0  0  0  0  0  0  0  0
   -0.9395    3.2614   -2.4792 C   0  0  0  0  0  0  0  0  0  0  0  0
   -0.9378    4.7485   -2.2240 C   0  0  0  0  0  0  0  0  0  0  0  0
   -1.1595    5.6411   -3.2883 C   0  0  0  0  0  0  0  0  0  0  0  0
   -0.7757    6.9702   -3.1695 C   0  0  0  0  0  0  0  0  0  0  0  0
   -0.4503    7.4682   -1.9167 C   0  0  0  0  0  0  0  0  0  0  0  0
   -0.4746    6.6277   -0.8037 C   0  0  0  0  0  0  0  0  0  0  0  0
   -0.5962    5.2524   -0.9702 C   0  0  0  0  0  0  0  0  0  0  0  0
    0.6163    2.4229   -4.1626 C   0  0  0  0  0  0  0  0  0  0  0  0
   -0.1639    2.6717   -5.0751 O   0  0  0  0  0  0  0  0  0  0  0  0
    1.9298    1.7895   -4.4773 C   0  0  0  0  0  0  0  0  0  0  0  0
    2.6615    1.2389   -3.5073 C   0  0  0  0  0  0  0  0  0  0  0  0
    4.1707    0.3774    0.6442 C   0  0  0  0  0  0  0  0  0  0  0  0
    4.2495    0.7899    2.3051 C   0  0  0  0  0  0  0  0  0  0  0  0
    5.3845    0.5971    2.9669 C   0  0  0  0  0  0  0  0  0  0  0  0
    5.8376    0.1141    1.9343 N   0  0  0  0  0  0  0  0  0  0  0  0
    6.3392   -0.3952    0.8790 C   0  0  0  0  0  0  0  0  0  0  0  0
    7.6242   -0.6514    1.1331 C   0  0  0  0  0  0  0  0  0  0  0  0
    8.4691   -0.8169    0.1063 C   0  0  0  0  0  0  0  0  0  0  0  0
    7.9003   -0.9367   -1.1411 C   0  0  0  0  0  0  0  0  0  0  0  0
    8.7537   -1.2765   -2.1162 F   0  0  0  0  0  0  0  0  0  0  0  0
    6.4678   -0.7533   -1.3368 C   0  0  0  0  0  0  0  0  0  0  0  0
    5.5034   -0.2693   -0.1710 C   0  0  0  0  0  0  0  0  0  0  0  0
    3.3683   -0.1367   -1.5102 H   0  0  0  0  0  0  0  0  0  0  0  0
    1.0552    2.4748   -0.8216 H   0  0  0  0  0  0  0  0  0  0  0  0
   -1.3231    2.7190   -1.6005 H   0  0  0  0  0  0  0  0  0  0  0  0
   -1.6315    3.0412   -3.2977 H   0  0  0  0  0  0  0  0  0  0  0  0
   -1.4696    5.2558   -4.2564 H   0  0  0  0  0  0  0  0  0  0  0  0
   -0.7262    7.6125   -4.0432 H   0  0  0  0  0  0  0  0  0  0  0  0
   -0.1963    8.5173   -1.8087 H   0  0  0  0  0  0  0  0  0  0  0  0
   -0.3825    7.0446    0.1925 H   0  0  0  0  0  0  0  0  0  0  0  0
   -0.4177    4.5808   -0.1330 H   0  0  0  0  0  0  0  0  0  0  0  0
    2.2241    1.7505   -5.5094 H   0  0  0  0  0  0  0  0  0  0  0  0
    3.5688    0.6758   -3.6841 H   0  0  0  0  0  0  0  0  0  0  0  0
    3.6432    1.4277    2.9622 H   0  0  0  0  0  0  0  0  0  0  0  0
    6.0100    0.7904    3.8120 H   0  0  0  0  0  0  0  0  0  0  0  0
    7.8753   -0.5853    2.1781 H   0  0  0  0  0  0  0  0  0  0  0  0
    9.4958   -0.9035    0.3711 H   0  0  0  0  0  0  0  0  0  0  0  0
    6.1468   -1.0296   -2.3451 H   0  0  0  0  0  0  0  0  0  0  0  0
  1  2  2  0  0  0  0
  2  3  1  0  0  0  0
  2 18  1  0  0  0  0
  3  4  1  0  0  0  0
  3 29  1  0  0  0  0
  4  5  2  0  0  0  0
  4 17  1  0  0  0  0
  5  6  1  0  0  0  0
  5 30  1  0  0  0  0
  6  7  1  0  0  0  0
  6 14  1  0  0  0  0
  7  8  1  0  0  0  0
  7 31  1  0  0  0  0
  7 32  1  0  0  0  0
  8  9  2  0  0  0  0
  8 13  1  0  0  0  0
  9 10  1  0  0  0  0
  9 33  1  0  0  0  0
 10 11  2  0  0  0  0
 10 34  1  0  0  0  0
 11 12  1  0  0  0  0
 11 35  1  0  0  0  0
 12 13  2  0  0  0  0
 12 36  1  0  0  0  0
 13 37  1  0  0  0  0
 14 15  2  0  0  0  0
 14 16  1  0  0  0  0
 16 17  2  0  0  0  0
 16 38  1  0  0  0  0
 17 39  1  0  0  0  0
 18 19  2  0  0  0  0
 18 28  1  0  0  0  0
 19 20  1  0  0  0  0
 19 40  1  0  0  0  0
 20 21  2  0  0  0  0
 20 41  1  0  0  0  0
 21 22  1  0  0  0  0
 22 23  2  0  0  0  0
 22 28  1  0  0  0  0
 23 24  1  0  0  0  0
 23 42  1  0  0  0  0
 24 25  2  0  0  0  0
 24 43  1  0  0  0  0
 25 26  1  0  0  0  0
 25 27  1  0  0  0  0
 27 28  2  0  0  0  0
 27 44  1  0  0  0  0
M  END
$$$$
