
 OpenBabel01122422373D

 40 43  0  0  0  0  0  0  0  0999 V2000
    1.5404    0.4579   -0.3949 O   0  0  0  0  0  0  0  0  0  0  0  0
    2.6884    0.8585   -0.2113 C   0  0  0  0  0  0  0  0  0  0  0  0
    3.1424    1.1585    1.0443 N   0  0  0  0  0  0  0  0  0  0  0  0
    2.3166    0.8482    2.2022 C   0  0  0  0  0  0  0  0  0  0  0  0
    3.0332    1.1964    3.4566 C   0  0  0  0  0  0  0  0  0  0  0  0
    2.4933    1.0374    4.6674 N   0  0  0  0  0  0  0  0  0  0  0  0
    3.4834    1.5130    5.5267 O   0  0  0  0  0  0  0  0  0  0  0  0
    4.5335    1.9018    4.7419 C   0  0  0  0  0  0  0  0  0  0  0  0
    5.6903    2.4791    5.4123 C   0  0  0  0  0  0  0  0  0  0  0  0
    5.7231    2.6737    6.8034 C   0  0  0  0  0  0  0  0  0  0  0  0
    6.8312    3.2684    7.4122 C   0  0  0  0  0  0  0  0  0  0  0  0
    7.9111    3.6672    6.6339 C   0  0  0  0  0  0  0  0  0  0  0  0
    8.9651    4.2499    7.2174 F   0  0  0  0  0  0  0  0  0  0  0  0
    7.9090    3.4757    5.2582 C   0  0  0  0  0  0  0  0  0  0  0  0
    6.8009    2.8814    4.6483 C   0  0  0  0  0  0  0  0  0  0  0  0
    4.3148    1.7114    3.4613 N   0  0  0  0  0  0  0  0  0  0  0  0
    3.6665    0.9301   -1.3734 C   0  0  0  0  0  0  0  0  0  0  0  0
    4.9907    0.9974   -1.0965 C   0  0  0  0  0  0  0  0  0  0  0  0
    5.8056   -0.1067   -0.8868 N   0  0  0  0  0  0  0  0  0  0  0  0
    5.2417   -1.3920   -0.9707 C   0  0  0  0  0  0  0  0  0  0  0  0
    3.9795   -1.5249   -1.5907 C   0  0  0  0  0  0  0  0  0  0  0  0
    3.2202   -2.6832   -1.5158 C   0  0  0  0  0  0  0  0  0  0  0  0
    3.7399   -3.7338   -0.7772 C   0  0  0  0  0  0  0  0  0  0  0  0
    2.9870   -4.8244   -0.5770 F   0  0  0  0  0  0  0  0  0  0  0  0
    5.0106   -3.6439   -0.1964 C   0  0  0  0  0  0  0  0  0  0  0  0
    5.4784   -4.6663    0.5350 F   0  0  0  0  0  0  0  0  0  0  0  0
    5.7746   -2.4849   -0.2964 C   0  0  0  0  0  0  0  0  0  0  0  0
    3.4610   -0.2941   -2.2250 C   0  0  0  0  0  0  0  0  0  0  0  0
    2.9632   -0.2735   -3.3392 O   0  0  0  0  0  0  0  0  0  0  0  0
    4.1170    1.3710    1.2228 H   0  0  0  0  0  0  0  0  0  0  0  0
    2.0784   -0.2231    2.1874 H   0  0  0  0  0  0  0  0  0  0  0  0
    1.3795    1.4099    2.1235 H   0  0  0  0  0  0  0  0  0  0  0  0
    4.8828    2.3760    7.4287 H   0  0  0  0  0  0  0  0  0  0  0  0
    6.8539    3.4286    8.4855 H   0  0  0  0  0  0  0  0  0  0  0  0
    8.7619    3.7967    4.6694 H   0  0  0  0  0  0  0  0  0  0  0  0
    6.8034    2.7410    3.5685 H   0  0  0  0  0  0  0  0  0  0  0  0
    5.5638    1.8227   -1.5148 H   0  0  0  0  0  0  0  0  0  0  0  0
    6.8133   -0.0083   -0.9677 H   0  0  0  0  0  0  0  0  0  0  0  0
    2.2267   -2.7326   -1.9479 H   0  0  0  0  0  0  0  0  0  0  0  0
    6.7332   -2.4275    0.2120 H   0  0  0  0  0  0  0  0  0  0  0  0
  1  2  2  0  0  0  0
  2  3  1  0  0  0  0
  2 17  1  0  0  0  0
  3  4  1  0  0  0  0
  3 30  1  0  0  0  0
  4  5  1  0  0  0  0
  4 31  1  0  0  0  0
  4 32  1  0  0  0  0
  5  6  2  0  0  0  0
  5 16  1  0  0  0  0
  6  7  1  0  0  0  0
  7  8  1  0  0  0  0
  8  9  1  0  0  0  0
  8 16  2  0  0  0  0
  9 10  2  0  0  0  0
  9 15  1  0  0  0  0
 10 11  1  0  0  0  0
 10 33  1  0  0  0  0
 11 12  2  0  0  0  0
 11 34  1  0  0  0  0
 12 13  1  0  0  0  0
 12 14  1  0  0  0  0
 14 15  2  0  0  0  0
 14 35  1  0  0  0  0
 15 36  1  0  0  0  0
 17 18  2  0  0  0  0
 17 28  1  0  0  0  0
 18 19  1  0  0  0  0
 18 37  1  0  0  0  0
 19 20  1  0  0  0  0
 19 38  1  0  0  0  0
 20 21  2  0  0  0  0
 20 27  1  0  0  0  0
 21 22  1  0  0  0  0
 21 28  1  0  0  0  0
 22 23  2  0  0  0  0
 22 39  1  0  0  0  0
 23 24  1  0  0  0  0
 23 25  1  0  0  0  0
 25 26  1  0  0  0  0
 25 27  2  0  0  0  0
 27 40  1  0  0  0  0
 28 29  2  0  0  0  0
M  END
$$$$
