
 OpenBabel01122422373D

 47 50  0  0  1  0  0  0  0  0999 V2000
    7.9213   -0.6473    7.0291 N   0  0  0  0  0  0  0  0  0  0  0  0
    7.9514   -0.5473    5.7725 C   0  0  0  0  0  0  0  0  0  0  0  0
    7.9878   -0.4266    4.2577 C   0  0  0  0  0  0  0  0  0  0  0  0
    7.8179   -1.5147    3.4795 C   0  0  0  0  0  0  0  0  0  0  0  0
    7.8661   -1.3862    2.0867 N   0  0  0  0  0  0  0  0  0  0  0  0
    7.7487   -2.3325    1.0730 C   0  0  0  0  0  0  0  0  0  0  0  0
    7.6089   -3.7635    1.2511 C   0  0  0  0  0  0  0  0  0  0  0  0
    7.6417   -4.3122    2.3487 O   0  0  0  0  0  0  0  0  0  0  0  0
    7.4402   -4.4860    0.0902 N   0  0  0  0  0  0  0  0  0  0  0  0
    7.3426   -5.9443    0.0714 C   0  0  3  0  0  0  0  0  0  0  0  0
    6.5660   -6.4447   -1.1681 C   0  0  0  0  0  0  0  0  0  0  0  0
    5.2369   -5.9115   -1.1739 O   0  0  0  0  0  0  0  0  0  0  0  0
    4.4442   -6.2935   -2.2255 C   0  0  0  0  0  0  0  0  0  0  0  0
    4.8385   -7.1062   -3.2922 C   0  0  0  0  0  0  0  0  0  0  0  0
    3.9314   -7.4351   -4.3031 C   0  0  0  0  0  0  0  0  0  0  0  0
    2.6257   -6.9537   -4.2561 C   0  0  0  0  0  0  0  0  0  0  0  0
    2.2267   -6.1378   -3.2001 C   0  0  0  0  0  0  0  0  0  0  0  0
    3.1345   -5.8080   -2.1899 C   0  0  0  0  0  0  0  0  0  0  0  0
    8.7321   -6.5765    0.0860 C   0  0  0  0  0  0  0  0  0  0  0  0
    9.0852   -7.4815    1.1017 C   0  0  0  0  0  0  0  0  0  0  0  0
   10.3541   -8.0674    1.1221 C   0  0  0  0  0  0  0  0  0  0  0  0
   11.2721   -7.7542    0.1280 C   0  0  0  0  0  0  0  0  0  0  0  0
   12.4916   -8.3077    0.1550 F   0  0  0  0  0  0  0  0  0  0  0  0
   10.9440   -6.8740   -0.8942 C   0  0  0  0  0  0  0  0  0  0  0  0
    9.6780   -6.2853   -0.9160 C   0  0  0  0  0  0  0  0  0  0  0  0
    7.8243   -1.5834   -0.0915 C   0  0  0  0  0  0  0  0  0  0  0  0
    8.0215   -0.2540    0.1560 N   0  0  0  0  0  0  0  0  0  0  0  0
    8.0640   -0.1519    1.4629 C   0  0  0  0  0  0  0  0  0  0  0  0
    8.2737    0.9880    2.2913 C   0  0  0  0  0  0  0  0  0  0  0  0
    8.2411    0.8629    3.6317 C   0  0  0  0  0  0  0  0  0  0  0  0
    7.6407   -2.5028    3.8887 H   0  0  0  0  0  0  0  0  0  0  0  0
    7.3371   -4.0113   -0.7915 H   0  0  0  0  0  0  0  0  0  0  0  0
    6.7863   -6.2411    0.9709 H   0  0  0  0  0  0  0  0  0  0  0  0
    6.5204   -7.5413   -1.1429 H   0  0  0  0  0  0  0  0  0  0  0  0
    7.0828   -6.1185   -2.0798 H   0  0  0  0  0  0  0  0  0  0  0  0
    5.8432   -7.5070   -3.3722 H   0  0  0  0  0  0  0  0  0  0  0  0
    4.2466   -8.0717   -5.1261 H   0  0  0  0  0  0  0  0  0  0  0  0
    1.9207   -7.2157   -5.0409 H   0  0  0  0  0  0  0  0  0  0  0  0
    1.2083   -5.7609   -3.1601 H   0  0  0  0  0  0  0  0  0  0  0  0
    2.8139   -5.1727   -1.3681 H   0  0  0  0  0  0  0  0  0  0  0  0
    8.3780   -7.7300    1.8907 H   0  0  0  0  0  0  0  0  0  0  0  0
   10.6334   -8.7599    1.9101 H   0  0  0  0  0  0  0  0  0  0  0  0
   11.6767   -6.6480   -1.6625 H   0  0  0  0  0  0  0  0  0  0  0  0
    9.4399   -5.5930   -1.7202 H   0  0  0  0  0  0  0  0  0  0  0  0
    7.7680   -1.9324   -1.1146 H   0  0  0  0  0  0  0  0  0  0  0  0
    8.4661    1.9426    1.8133 H   0  0  0  0  0  0  0  0  0  0  0  0
    8.4125    1.7255    4.2697 H   0  0  0  0  0  0  0  0  0  0  0  0
  1  2  3  0  0  0  0
  2  3  1  0  0  0  0
  3  4  2  0  0  0  0
  3 30  1  0  0  0  0
  4  5  1  0  0  0  0
  4 31  1  0  0  0  0
  5  6  1  0  0  0  0
  5 28  1  0  0  0  0
  6  7  1  0  0  0  0
  6 26  2  0  0  0  0
  7  8  2  0  0  0  0
  7  9  1  0  0  0  0
  9 10  1  0  0  0  0
  9 32  1  0  0  0  0
 10 11  1  0  0  0  0
 10 19  1  0  0  0  0
 10 33  1  0  0  0  0
 11 12  1  0  0  0  0
 11 34  1  0  0  0  0
 11 35  1  0  0  0  0
 12 13  1  0  0  0  0
 13 14  2  0  0  0  0
 13 18  1  0  0  0  0
 14 15  1  0  0  0  0
 14 36  1  0  0  0  0
 15 16  2  0  0  0  0
 15 37  1  0  0  0  0
 16 17  1  0  0  0  0
 16 38  1  0  0  0  0
 17 18  2  0  0  0  0
 17 39  1  0  0  0  0
 18 40  1  0  0  0  0
 19 20  2  0  0  0  0
 19 25  1  0  0  0  0
 20 21  1  0  0  0  0
 20 41  1  0  0  0  0
 21 22  2  0  0  0  0
 21 42  1  0  0  0  0
 22 23  1  0  0  0  0
 22 24  1  0  0  0  0
 24 25  2  0  0  0  0
 24 43  1  0  0  0  0
 25 44  1  0  0  0  0
 26 27  1  0  0  0  0
 26 45  1  0  0  0  0
 27 28  2  0  0  0  0
 28 29  1  0  0  0  0
 29 30  2  0  0  0  0
 29 46  1  0  0  0  0
 30 47  1  0  0  0  0
M  END
$$$$
