
 OpenBabel01122422373D

 45 48  0  0  0  0  0  0  0  0999 V2000
    2.8174    2.2859   -0.9417 O   0  0  0  0  0  0  0  0  0  0  0  0
    3.1711    1.1878   -0.5255 C   0  0  0  0  0  0  0  0  0  0  0  0
    2.9209    0.7434    0.7506 N   0  0  0  0  0  0  0  0  0  0  0  0
    2.2664    1.5731    1.7357 C   0  0  0  0  0  0  0  0  0  0  0  0
    3.2176    2.4715    2.4968 C   0  0  0  0  0  0  0  0  0  0  0  0
    3.6061    3.6927    1.9530 C   0  0  0  0  0  0  0  0  0  0  0  0
    4.3127    4.5899    2.7506 C   0  0  0  0  0  0  0  0  0  0  0  0
    4.6586    5.8672    2.3646 O   0  0  0  0  0  0  0  0  0  0  0  0
    3.8168    6.5820    1.5388 C   0  0  0  0  0  0  0  0  0  0  0  0
    2.4254    6.4603    1.5322 C   0  0  0  0  0  0  0  0  0  0  0  0
    1.6798    7.1775    0.6039 C   0  0  0  0  0  0  0  0  0  0  0  0
    0.3534    6.9984    0.5492 F   0  0  0  0  0  0  0  0  0  0  0  0
    2.2866    8.0683   -0.2718 C   0  0  0  0  0  0  0  0  0  0  0  0
    3.6663    8.2559   -0.2116 C   0  0  0  0  0  0  0  0  0  0  0  0
    4.4305    7.5125    0.6941 C   0  0  0  0  0  0  0  0  0  0  0  0
    4.7349    4.1926    4.0120 C   0  0  0  0  0  0  0  0  0  0  0  0
    4.3688    2.9317    4.4513 C   0  0  0  0  0  0  0  0  0  0  0  0
    3.6090    2.0745    3.7342 N   0  0  0  0  0  0  0  0  0  0  0  0
    3.9341    0.2405   -1.3999 C   0  0  0  0  0  0  0  0  0  0  0  0
    4.2604    0.6433   -2.6905 C   0  0  0  0  0  0  0  0  0  0  0  0
    4.9934   -0.2246   -3.4872 C   0  0  0  0  0  0  0  0  0  0  0  0
    5.3760   -1.4596   -2.9718 C   0  0  0  0  0  0  0  0  0  0  0  0
    5.0031   -1.7966   -1.6681 C   0  0  0  0  0  0  0  0  0  0  0  0
    5.3958   -3.0740   -1.1607 N   0  0  0  0  0  0  0  0  0  0  0  0
    5.0847   -3.5976    0.0762 C   0  0  0  0  0  0  0  0  0  0  0  0
    5.6628   -4.8426    0.1450 C   0  0  0  0  0  0  0  0  0  0  0  0
    6.3116   -4.9984   -1.0890 C   0  0  0  0  0  0  0  0  0  0  0  0
    6.1528   -3.9435   -1.8898 N   0  0  0  0  0  0  0  0  0  0  0  0
    4.2811   -0.9644   -0.8634 N   0  0  0  0  0  0  0  0  0  0  0  0
    3.3079   -0.1541    1.0275 H   0  0  0  0  0  0  0  0  0  0  0  0
    1.7512    0.9066    2.4353 H   0  0  0  0  0  0  0  0  0  0  0  0
    1.4975    2.1860    1.2484 H   0  0  0  0  0  0  0  0  0  0  0  0
    3.3092    3.9503    0.9411 H   0  0  0  0  0  0  0  0  0  0  0  0
    1.9032    5.7980    2.2139 H   0  0  0  0  0  0  0  0  0  0  0  0
    1.6804    8.6129   -0.9894 H   0  0  0  0  0  0  0  0  0  0  0  0
    4.1479    8.9707   -0.8722 H   0  0  0  0  0  0  0  0  0  0  0  0
    5.5078    7.6524    0.7312 H   0  0  0  0  0  0  0  0  0  0  0  0
    5.3179    4.8522    4.6429 H   0  0  0  0  0  0  0  0  0  0  0  0
    4.6739    2.5729    5.4291 H   0  0  0  0  0  0  0  0  0  0  0  0
    3.9541    1.6154   -3.0640 H   0  0  0  0  0  0  0  0  0  0  0  0
    5.2686    0.0579   -4.4999 H   0  0  0  0  0  0  0  0  0  0  0  0
    5.9526   -2.1417   -3.5911 H   0  0  0  0  0  0  0  0  0  0  0  0
    4.4834   -3.0393    0.7793 H   0  0  0  0  0  0  0  0  0  0  0  0
    5.6225   -5.5390    0.9701 H   0  0  0  0  0  0  0  0  0  0  0  0
    6.8945   -5.8398   -1.4424 H   0  0  0  0  0  0  0  0  0  0  0  0
  1  2  2  0  0  0  0
  2  3  1  0  0  0  0
  2 19  1  0  0  0  0
  3  4  1  0  0  0  0
  3 30  1  0  0  0  0
  4  5  1  0  0  0  0
  4 31  1  0  0  0  0
  4 32  1  0  0  0  0
  5  6  2  0  0  0  0
  5 18  1  0  0  0  0
  6  7  1  0  0  0  0
  6 33  1  0  0  0  0
  7  8  1  0  0  0  0
  7 16  2  0  0  0  0
  8  9  1  0  0  0  0
  9 10  2  0  0  0  0
  9 15  1  0  0  0  0
 10 11  1  0  0  0  0
 10 34  1  0  0  0  0
 11 12  1  0  0  0  0
 11 13  2  0  0  0  0
 13 14  1  0  0  0  0
 13 35  1  0  0  0  0
 14 15  2  0  0  0  0
 14 36  1  0  0  0  0
 15 37  1  0  0  0  0
 16 17  1  0  0  0  0
 16 38  1  0  0  0  0
 17 18  2  0  0  0  0
 17 39  1  0  0  0  0
 19 20  2  0  0  0  0
 19 29  1  0  0  0  0
 20 21  1  0  0  0  0
 20 40  1  0  0  0  0
 21 22  2  0  0  0  0
 21 41  1  0  0  0  0
 22 23  1  0  0  0  0
 22 42  1  0  0  0  0
 23 24  1  0  0  0  0
 23 29  2  0  0  0  0
 24 25  1  0  0  0  0
 24 28  1  0  0  0  0
 25 26  2  0  0  0  0
 25 43  1  0  0  0  0
 26 27  1  0  0  0  0
 26 44  1  0  0  0  0
 27 28  2  0  0  0  0
 27 45  1  0  0  0  0
M  END
$$$$
