
 OpenBabel01122422373D

 50 53  0  0  0  0  0  0  0  0999 V2000
    0.8843   -1.0586    1.8404 C   0  0  0  0  0  0  0  0  0  0  0  0
    1.6812   -0.7563    0.7000 O   0  0  0  0  0  0  0  0  0  0  0  0
    2.6000   -1.6990    0.3307 C   0  0  0  0  0  0  0  0  0  0  0  0
    2.8541   -2.8957    0.9995 C   0  0  0  0  0  0  0  0  0  0  0  0
    3.8062   -3.7932    0.5087 C   0  0  0  0  0  0  0  0  0  0  0  0
    4.5187   -3.5158   -0.6641 C   0  0  0  0  0  0  0  0  0  0  0  0
    5.4875   -4.5261   -1.2311 C   0  0  0  0  0  0  0  0  0  0  0  0
    4.8438   -5.3555   -2.2408 N   0  0  0  0  0  0  0  0  0  0  0  0
    4.7840   -5.0235   -3.5725 C   0  0  0  0  0  0  0  0  0  0  0  0
    4.0150   -5.9973   -4.1559 C   0  0  0  0  0  0  0  0  0  0  0  0
    3.6932   -6.9720   -3.2470 N   0  0  0  0  0  0  0  0  0  0  0  0
    4.2142   -6.5792   -2.0959 C   0  0  0  0  0  0  0  0  0  0  0  0
    4.1099   -7.3713   -0.8781 C   0  0  0  0  0  0  0  0  0  0  0  0
    4.5721   -7.0037    0.1955 O   0  0  0  0  0  0  0  0  0  0  0  0
    3.5125   -8.6265   -1.0689 N   0  0  0  0  0  0  0  0  0  0  0  0
    3.3404   -9.6017   -0.1098 C   0  0  0  0  0  0  0  0  0  0  0  0
    3.3335   -9.3606    1.2120 C   0  0  0  0  0  0  0  0  0  0  0  0
    3.2588  -10.3611    2.1762 N   0  0  0  0  0  0  0  0  0  0  0  0
    3.3390  -10.0171    3.5623 C   0  0  0  0  0  0  0  0  0  0  0  0
    4.2989   -9.0918    4.0008 C   0  0  0  0  0  0  0  0  0  0  0  0
    4.3791   -8.7349    5.3468 C   0  0  0  0  0  0  0  0  0  0  0  0
    3.4771   -9.2721    6.2624 C   0  0  0  0  0  0  0  0  0  0  0  0
    2.5083  -10.1797    5.8356 C   0  0  0  0  0  0  0  0  0  0  0  0
    2.4488  -10.5645    4.4935 C   0  0  0  0  0  0  0  0  0  0  0  0
    3.2136  -11.7150    1.8089 C   0  0  0  0  0  0  0  0  0  0  0  0
    3.2541  -12.6820    2.5674 O   0  0  0  0  0  0  0  0  0  0  0  0
    3.1434  -11.9787    0.3416 C   0  0  0  0  0  0  0  0  0  0  0  0
    3.1782  -10.9742   -0.5473 C   0  0  0  0  0  0  0  0  0  0  0  0
    4.2752   -2.3001   -1.3196 C   0  0  0  0  0  0  0  0  0  0  0  0
    3.3241   -1.4022   -0.8237 C   0  0  0  0  0  0  0  0  0  0  0  0
    0.1650   -0.2449    1.9760 H   0  0  0  0  0  0  0  0  0  0  0  0
    1.5015   -1.1128    2.7436 H   0  0  0  0  0  0  0  0  0  0  0  0
    0.3152   -1.9826    1.6944 H   0  0  0  0  0  0  0  0  0  0  0  0
    2.3232   -3.1697    1.9064 H   0  0  0  0  0  0  0  0  0  0  0  0
    3.9771   -4.7212    1.0518 H   0  0  0  0  0  0  0  0  0  0  0  0
    5.9351   -5.1562   -0.4591 H   0  0  0  0  0  0  0  0  0  0  0  0
    6.3236   -4.0044   -1.7161 H   0  0  0  0  0  0  0  0  0  0  0  0
    5.2444   -4.1261   -3.9672 H   0  0  0  0  0  0  0  0  0  0  0  0
    3.6935   -6.0527   -5.1866 H   0  0  0  0  0  0  0  0  0  0  0  0
    3.3325   -8.8477   -2.0444 H   0  0  0  0  0  0  0  0  0  0  0  0
    3.3561   -8.3479    1.5985 H   0  0  0  0  0  0  0  0  0  0  0  0
    5.0257   -8.6794    3.3047 H   0  0  0  0  0  0  0  0  0  0  0  0
    5.1504   -8.0460    5.6796 H   0  0  0  0  0  0  0  0  0  0  0  0
    3.5324   -8.9880    7.3100 H   0  0  0  0  0  0  0  0  0  0  0  0
    1.7975  -10.5905    6.5469 H   0  0  0  0  0  0  0  0  0  0  0  0
    1.6795  -11.2646    4.1762 H   0  0  0  0  0  0  0  0  0  0  0  0
    3.0749  -13.0215    0.0535 H   0  0  0  0  0  0  0  0  0  0  0  0
    3.1184  -11.1969   -1.6064 H   0  0  0  0  0  0  0  0  0  0  0  0
    4.8119   -2.0424   -2.2314 H   0  0  0  0  0  0  0  0  0  0  0  0
    3.1384   -0.4683   -1.3498 H   0  0  0  0  0  0  0  0  0  0  0  0
  1  2  1  0  0  0  0
  1 31  1  0  0  0  0
  1 32  1  0  0  0  0
  1 33  1  0  0  0  0
  2  3  1  0  0  0  0
  3  4  2  0  0  0  0
  3 30  1  0  0  0  0
  4  5  1  0  0  0  0
  4 34  1  0  0  0  0
  5  6  2  0  0  0  0
  5 35  1  0  0  0  0
  6  7  1  0  0  0  0
  6 29  1  0  0  0  0
  7  8  1  0  0  0  0
  7 36  1  0  0  0  0
  7 37  1  0  0  0  0
  8  9  1  0  0  0  0
  8 12  1  0  0  0  0
  9 10  2  0  0  0  0
  9 38  1  0  0  0  0
 10 11  1  0  0  0  0
 10 39  1  0  0  0  0
 11 12  2  0  0  0  0
 12 13  1  0  0  0  0
 13 14  2  0  0  0  0
 13 15  1  0  0  0  0
 15 16  1  0  0  0  0
 15 40  1  0  0  0  0
 16 17  2  0  0  0  0
 16 28  1  0  0  0  0
 17 18  1  0  0  0  0
 17 41  1  0  0  0  0
 18 19  1  0  0  0  0
 18 25  1  0  0  0  0
 19 20  2  0  0  0  0
 19 24  1  0  0  0  0
 20 21  1  0  0  0  0
 20 42  1  0  0  0  0
 21 22  2  0  0  0  0
 21 43  1  0  0  0  0
 22 23  1  0  0  0  0
 22 44  1  0  0  0  0
 23 24  2  0  0  0  0
 23 45  1  0  0  0  0
 24 46  1  0  0  0  0
 25 26  2  0  0  0  0
 25 27  1  0  0  0  0
 27 28  2  0  0  0  0
 27 47  1  0  0  0  0
 28 48  1  0  0  0  0
 29 30  2  0  0  0  0
 29 49  1  0  0  0  0
 30 50  1  0  0  0  0
M  END
$$$$
