
 OpenBabel01122422353D

 50 53  0  0  0  0  0  0  0  0999 V2000
    1.6530    0.8545   -1.1981 C   0  0  0  0  0  0  0  0  0  0  0  0
    1.8426   -0.3023   -0.3901 O   0  0  0  0  0  0  0  0  0  0  0  0
    2.6899   -1.2559   -0.8841 C   0  0  0  0  0  0  0  0  0  0  0  0
    3.3324   -1.2054   -2.1197 C   0  0  0  0  0  0  0  0  0  0  0  0
    4.1733   -2.2470   -2.5239 C   0  0  0  0  0  0  0  0  0  0  0  0
    4.3728   -3.3607   -1.6967 C   0  0  0  0  0  0  0  0  0  0  0  0
    5.1984   -4.4409   -2.1188 N   0  0  0  0  0  0  0  0  0  0  0  0
    5.9347   -4.5181   -3.2800 C   0  0  0  0  0  0  0  0  0  0  0  0
    6.5225   -5.7550   -3.3036 C   0  0  0  0  0  0  0  0  0  0  0  0
    6.1045   -6.3888   -2.1115 C   0  0  0  0  0  0  0  0  0  0  0  0
    6.4545   -7.7598   -1.7099 C   0  0  0  0  0  0  0  0  0  0  0  0
    7.1585   -8.4812   -2.4113 O   0  0  0  0  0  0  0  0  0  0  0  0
    5.9212   -8.1592   -0.5070 N   0  0  0  0  0  0  0  0  0  0  0  0
    6.0746   -9.5072   -0.0159 C   0  0  0  0  0  0  0  0  0  0  0  0
    6.7363   -9.5954    1.3390 C   0  0  0  0  0  0  0  0  0  0  0  0
    6.4258  -10.6744    2.1821 C   0  0  0  0  0  0  0  0  0  0  0  0
    7.0669  -10.8310    3.4150 C   0  0  0  0  0  0  0  0  0  0  0  0
    8.0421   -9.9166    3.8245 C   0  0  0  0  0  0  0  0  0  0  0  0
    8.7075  -10.0751    5.1283 C   0  0  0  0  0  0  0  0  0  0  0  0
    9.8430  -10.7951    5.1937 C   0  0  0  0  0  0  0  0  0  0  0  0
   10.4948  -10.9751    6.3893 N   0  0  0  0  0  0  0  0  0  0  0  0
   10.0661  -10.4580    7.5871 C   0  0  0  0  0  0  0  0  0  0  0  0
   10.6617  -10.6336    8.6425 O   0  0  0  0  0  0  0  0  0  0  0  0
    8.8153   -9.6610    7.5297 C   0  0  0  0  0  0  0  0  0  0  0  0
    8.1889   -9.4915    6.3571 C   0  0  0  0  0  0  0  0  0  0  0  0
    8.3699   -8.8476    2.9838 C   0  0  0  0  0  0  0  0  0  0  0  0
    7.7299   -8.6945    1.7482 C   0  0  0  0  0  0  0  0  0  0  0  0
    5.3188   -5.5785   -1.3757 N   0  0  0  0  0  0  0  0  0  0  0  0
    3.7314   -3.4104   -0.4527 C   0  0  0  0  0  0  0  0  0  0  0  0
    2.8974   -2.3595   -0.0530 C   0  0  0  0  0  0  0  0  0  0  0  0
    0.9584    1.5208   -0.6789 H   0  0  0  0  0  0  0  0  0  0  0  0
    1.2043    0.5940   -2.1630 H   0  0  0  0  0  0  0  0  0  0  0  0
    2.5960    1.3948   -1.3352 H   0  0  0  0  0  0  0  0  0  0  0  0
    3.1973   -0.3728   -2.8023 H   0  0  0  0  0  0  0  0  0  0  0  0
    4.6392   -2.1566   -3.4999 H   0  0  0  0  0  0  0  0  0  0  0  0
    5.9827   -3.7116   -3.9945 H   0  0  0  0  0  0  0  0  0  0  0  0
    7.1600   -6.1651   -4.0752 H   0  0  0  0  0  0  0  0  0  0  0  0
    5.3101   -7.4999   -0.0356 H   0  0  0  0  0  0  0  0  0  0  0  0
    6.6494  -10.1145   -0.7234 H   0  0  0  0  0  0  0  0  0  0  0  0
    5.0624   -9.9245    0.0370 H   0  0  0  0  0  0  0  0  0  0  0  0
    5.6856  -11.4122    1.8777 H   0  0  0  0  0  0  0  0  0  0  0  0
    6.8055  -11.6763    4.0481 H   0  0  0  0  0  0  0  0  0  0  0  0
   10.2975  -11.2653    4.3264 H   0  0  0  0  0  0  0  0  0  0  0  0
   11.3491  -11.5196    6.4271 H   0  0  0  0  0  0  0  0  0  0  0  0
    8.4572   -9.2410    8.4595 H   0  0  0  0  0  0  0  0  0  0  0  0
    7.2745   -8.9105    6.2984 H   0  0  0  0  0  0  0  0  0  0  0  0
    9.1329   -8.1309    3.2797 H   0  0  0  0  0  0  0  0  0  0  0  0
    8.0238   -7.8685    1.1035 H   0  0  0  0  0  0  0  0  0  0  0  0
    3.8683   -4.2556    0.2185 H   0  0  0  0  0  0  0  0  0  0  0  0
    2.4027   -2.4048    0.9147 H   0  0  0  0  0  0  0  0  0  0  0  0
  1  2  1  0  0  0  0
  1 31  1  0  0  0  0
  1 32  1  0  0  0  0
  1 33  1  0  0  0  0
  2  3  1  0  0  0  0
  3  4  2  0  0  0  0
  3 30  1  0  0  0  0
  4  5  1  0  0  0  0
  4 34  1  0  0  0  0
  5  6  2  0  0  0  0
  5 35  1  0  0  0  0
  6  7  1  0  0  0  0
  6 29  1  0  0  0  0
  7  8  1  0  0  0  0
  7 28  1  0  0  0  0
  8  9  2  0  0  0  0
  8 36  1  0  0  0  0
  9 10  1  0  0  0  0
  9 37  1  0  0  0  0
 10 11  1  0  0  0  0
 10 28  2  0  0  0  0
 11 12  2  0  0  0  0
 11 13  1  0  0  0  0
 13 14  1  0  0  0  0
 13 38  1  0  0  0  0
 14 15  1  0  0  0  0
 14 39  1  0  0  0  0
 14 40  1  0  0  0  0
 15 16  2  0  0  0  0
 15 27  1  0  0  0  0
 16 17  1  0  0  0  0
 16 41  1  0  0  0  0
 17 18  2  0  0  0  0
 17 42  1  0  0  0  0
 18 19  1  0  0  0  0
 18 26  1  0  0  0  0
 19 20  2  0  0  0  0
 19 25  1  0  0  0  0
 20 21  1  0  0  0  0
 20 43  1  0  0  0  0
 21 22  1  0  0  0  0
 21 44  1  0  0  0  0
 22 23  2  0  0  0  0
 22 24  1  0  0  0  0
 24 25  2  0  0  0  0
 24 45  1  0  0  0  0
 25 46  1  0  0  0  0
 26 27  2  0  0  0  0
 26 47  1  0  0  0  0
 27 48  1  0  0  0  0
 29 30  2  0  0  0  0
 29 49  1  0  0  0  0
 30 50  1  0  0  0  0
M  END
$$$$
