
 OpenBabel01122422373D

 48 51  0  0  0  0  0  0  0  0999 V2000
    2.1412    1.1016   -0.6024 O   0  0  0  0  0  0  0  0  0  0  0  0
    2.3431   -0.0003   -0.1069 C   0  0  0  0  0  0  0  0  0  0  0  0
    3.0258   -1.1513   -0.8146 C   0  0  0  0  0  0  0  0  0  0  0  0
    2.0683   -1.9759   -1.4643 O   0  0  0  0  0  0  0  0  0  0  0  0
    2.5474   -2.6913   -2.5303 C   0  0  0  0  0  0  0  0  0  0  0  0
    3.8883   -3.0324   -2.7284 C   0  0  0  0  0  0  0  0  0  0  0  0
    4.2766   -3.6947   -3.8931 C   0  0  0  0  0  0  0  0  0  0  0  0
    3.3227   -4.0473   -4.8452 C   0  0  0  0  0  0  0  0  0  0  0  0
    1.9697   -3.7936   -4.6074 C   0  0  0  0  0  0  0  0  0  0  0  0
    0.9708   -4.1200   -5.4975 O   0  0  0  0  0  0  0  0  0  0  0  0
    1.0447   -5.3487   -6.1422 C   0  0  0  0  0  0  0  0  0  0  0  0
    0.3492   -5.4637   -7.3368 C   0  0  0  0  0  0  0  0  0  0  0  0
    0.4097   -6.6738   -8.0226 C   0  0  0  0  0  0  0  0  0  0  0  0
    1.1538   -7.7221   -7.4901 C   0  0  0  0  0  0  0  0  0  0  0  0
    1.7954   -7.5215   -6.2800 C   0  0  0  0  0  0  0  0  0  0  0  0
    1.7483   -6.3673   -5.5885 N   0  0  0  0  0  0  0  0  0  0  0  0
    1.5875   -3.0952   -3.4608 C   0  0  0  0  0  0  0  0  0  0  0  0
    2.0336   -0.3502    1.1705 O   0  0  0  0  0  0  0  0  0  0  0  0
    1.7976    0.7513    2.0572 C   0  0  0  0  0  0  0  0  0  0  0  0
    3.1135    1.1367    2.6519 C   0  0  0  0  0  0  0  0  0  0  0  0
    4.2715    0.5667    2.3584 N   0  0  0  0  0  0  0  0  0  0  0  0
    5.2754    1.3085    2.9112 N   0  0  0  0  0  0  0  0  0  0  0  0
    4.7182    2.3140    3.5397 C   0  0  0  0  0  0  0  0  0  0  0  0
    3.3475    2.2430    3.4583 N   0  0  0  0  0  0  0  0  0  0  0  0
    2.4276    3.1457    4.0532 C   0  0  0  0  0  0  0  0  0  0  0  0
    2.8065    4.4759    4.2866 C   0  0  0  0  0  0  0  0  0  0  0  0
    1.8803    5.3871    4.8017 C   0  0  0  0  0  0  0  0  0  0  0  0
    0.5856    4.9747    5.1089 C   0  0  0  0  0  0  0  0  0  0  0  0
    0.2222    3.6433    4.9321 C   0  0  0  0  0  0  0  0  0  0  0  0
    1.1413    2.7286    4.4153 C   0  0  0  0  0  0  0  0  0  0  0  0
    3.5929   -1.7357   -0.0793 H   0  0  0  0  0  0  0  0  0  0  0  0
    3.7357   -0.6947   -1.5161 H   0  0  0  0  0  0  0  0  0  0  0  0
    4.6542   -2.7927   -1.9976 H   0  0  0  0  0  0  0  0  0  0  0  0
    5.3218   -3.9407   -4.0598 H   0  0  0  0  0  0  0  0  0  0  0  0
    3.6415   -4.5465   -5.7557 H   0  0  0  0  0  0  0  0  0  0  0  0
   -0.2181   -4.6267   -7.7280 H   0  0  0  0  0  0  0  0  0  0  0  0
   -0.1154   -6.7971   -8.9654 H   0  0  0  0  0  0  0  0  0  0  0  0
    1.2307   -8.6735   -8.0047 H   0  0  0  0  0  0  0  0  0  0  0  0
    2.3909   -8.3073   -5.8220 H   0  0  0  0  0  0  0  0  0  0  0  0
    0.5410   -2.8563   -3.2949 H   0  0  0  0  0  0  0  0  0  0  0  0
    1.1165    0.3703    2.8194 H   0  0  0  0  0  0  0  0  0  0  0  0
    1.3121    1.5947    1.5525 H   0  0  0  0  0  0  0  0  0  0  0  0
    5.2533    3.0711    4.0949 H   0  0  0  0  0  0  0  0  0  0  0  0
    3.7952    4.8495    4.0309 H   0  0  0  0  0  0  0  0  0  0  0  0
    2.1646    6.4264    4.9498 H   0  0  0  0  0  0  0  0  0  0  0  0
   -0.1380    5.6885    5.4944 H   0  0  0  0  0  0  0  0  0  0  0  0
   -0.7779    3.3125    5.2033 H   0  0  0  0  0  0  0  0  0  0  0  0
    0.8318    1.6911    4.3677 H   0  0  0  0  0  0  0  0  0  0  0  0
  1  2  2  0  0  0  0
  2  3  1  0  0  0  0
  2 18  1  0  0  0  0
  3  4  1  0  0  0  0
  3 31  1  0  0  0  0
  3 32  1  0  0  0  0
  4  5  1  0  0  0  0
  5  6  2  0  0  0  0
  5 17  1  0  0  0  0
  6  7  1  0  0  0  0
  6 33  1  0  0  0  0
  7  8  2  0  0  0  0
  7 34  1  0  0  0  0
  8  9  1  0  0  0  0
  8 35  1  0  0  0  0
  9 10  1  0  0  0  0
  9 17  2  0  0  0  0
 10 11  1  0  0  0  0
 11 12  2  0  0  0  0
 11 16  1  0  0  0  0
 12 13  1  0  0  0  0
 12 36  1  0  0  0  0
 13 14  2  0  0  0  0
 13 37  1  0  0  0  0
 14 15  1  0  0  0  0
 14 38  1  0  0  0  0
 15 16  2  0  0  0  0
 15 39  1  0  0  0  0
 17 40  1  0  0  0  0
 18 19  1  0  0  0  0
 19 20  1  0  0  0  0
 19 41  1  0  0  0  0
 19 42  1  0  0  0  0
 20 21  2  0  0  0  0
 20 24  1  0  0  0  0
 21 22  1  0  0  0  0
 22 23  2  0  0  0  0
 23 24  1  0  0  0  0
 23 43  1  0  0  0  0
 24 25  1  0  0  0  0
 25 26  2  0  0  0  0
 25 30  1  0  0  0  0
 26 27  1  0  0  0  0
 26 44  1  0  0  0  0
 27 28  2  0  0  0  0
 27 45  1  0  0  0  0
 28 29  1  0  0  0  0
 28 46  1  0  0  0  0
 29 30  2  0  0  0  0
 29 47  1  0  0  0  0
 30 48  1  0  0  0  0
M  END
$$$$
