
 OpenBabel01122422373D

 51 54  0  0  0  0  0  0  0  0999 V2000
    2.0366    0.0282    1.3419 C   0  0  0  0  0  0  0  0  0  0  0  0
    0.6710   -0.0915    0.7152 C   0  0  0  0  0  0  0  0  0  0  0  0
   -0.1488    1.0499    0.6731 C   0  0  0  0  0  0  0  0  0  0  0  0
   -1.4066    1.0056    0.0751 C   0  0  0  0  0  0  0  0  0  0  0  0
   -1.8600   -0.1765   -0.4979 C   0  0  0  0  0  0  0  0  0  0  0  0
   -1.0595   -1.3227   -0.4592 C   0  0  0  0  0  0  0  0  0  0  0  0
    0.2068   -1.3041    0.1549 C   0  0  0  0  0  0  0  0  0  0  0  0
    1.0003   -2.5305    0.2330 C   0  0  0  0  0  0  0  0  0  0  0  0
    1.9046   -2.8956    1.1175 N   0  0  0  0  0  0  0  0  0  0  0  0
    2.2896   -4.1329    0.6568 C   0  0  0  0  0  0  0  0  0  0  0  0
    3.3146   -4.9615    1.3514 C   0  0  0  0  0  0  0  0  0  0  0  0
    3.7520   -4.3129    2.5769 N   0  0  0  0  0  0  0  0  0  0  0  0
    4.7036   -4.8937    3.3813 C   0  0  0  0  0  0  0  0  0  0  0  0
    5.2036   -5.9875    3.1191 O   0  0  0  0  0  0  0  0  0  0  0  0
    5.0654   -4.1058    4.6395 C   0  0  0  0  0  0  0  0  0  0  0  0
    6.1435   -3.2142    4.3811 O   0  0  0  0  0  0  0  0  0  0  0  0
    6.6073   -2.4871    5.4489 C   0  0  0  0  0  0  0  0  0  0  0  0
    6.0536   -2.4885    6.7322 C   0  0  0  0  0  0  0  0  0  0  0  0
    6.5784   -1.6607    7.7273 C   0  0  0  0  0  0  0  0  0  0  0  0
    7.6696   -0.8403    7.4524 C   0  0  0  0  0  0  0  0  0  0  0  0
    8.2783   -0.8848    6.1971 C   0  0  0  0  0  0  0  0  0  0  0  0
    9.3742   -0.1157    5.8631 O   0  0  0  0  0  0  0  0  0  0  0  0
   10.3724    0.0584    6.8208 C   0  0  0  0  0  0  0  0  0  0  0  0
   11.1725    1.1848    6.6867 C   0  0  0  0  0  0  0  0  0  0  0  0
   12.1685    1.4033    7.6384 C   0  0  0  0  0  0  0  0  0  0  0  0
   12.3323    0.4937    8.6775 C   0  0  0  0  0  0  0  0  0  0  0  0
   11.5013   -0.6131    8.7147 C   0  0  0  0  0  0  0  0  0  0  0  0
   10.5372   -0.8567    7.8036 N   0  0  0  0  0  0  0  0  0  0  0  0
    7.7239   -1.6813    5.1885 C   0  0  0  0  0  0  0  0  0  0  0  0
    1.6697   -4.5308   -0.4629 N   0  0  0  0  0  0  0  0  0  0  0  0
    0.8074   -3.4660   -0.7469 O   0  0  0  0  0  0  0  0  0  0  0  0
    2.2395    1.0526    1.6718 H   0  0  0  0  0  0  0  0  0  0  0  0
    2.8101   -0.2366    0.6136 H   0  0  0  0  0  0  0  0  0  0  0  0
    2.1161   -0.6150    2.2230 H   0  0  0  0  0  0  0  0  0  0  0  0
    0.1929    1.9874    1.1083 H   0  0  0  0  0  0  0  0  0  0  0  0
   -2.0296    1.8963    0.0554 H   0  0  0  0  0  0  0  0  0  0  0  0
   -2.8392   -0.2113   -0.9690 H   0  0  0  0  0  0  0  0  0  0  0  0
   -1.4473   -2.2369   -0.9033 H   0  0  0  0  0  0  0  0  0  0  0  0
    4.1890   -5.1099    0.7092 H   0  0  0  0  0  0  0  0  0  0  0  0
    2.9025   -5.9421    1.6128 H   0  0  0  0  0  0  0  0  0  0  0  0
    3.4257   -3.3673    2.7497 H   0  0  0  0  0  0  0  0  0  0  0  0
    5.3385   -4.8395    5.4087 H   0  0  0  0  0  0  0  0  0  0  0  0
    4.1770   -3.5520    4.9669 H   0  0  0  0  0  0  0  0  0  0  0  0
    5.2102   -3.1159    6.9975 H   0  0  0  0  0  0  0  0  0  0  0  0
    6.1419   -1.6577    8.7226 H   0  0  0  0  0  0  0  0  0  0  0  0
    8.0556   -0.1936    8.2350 H   0  0  0  0  0  0  0  0  0  0  0  0
   11.0185    1.8805    5.8724 H   0  0  0  0  0  0  0  0  0  0  0  0
   12.8076    2.2790    7.5723 H   0  0  0  0  0  0  0  0  0  0  0  0
   13.0889    0.6405    9.4396 H   0  0  0  0  0  0  0  0  0  0  0  0
   11.5848   -1.3528    9.5055 H   0  0  0  0  0  0  0  0  0  0  0  0
    8.1717   -1.6860    4.1983 H   0  0  0  0  0  0  0  0  0  0  0  0
  1  2  1  0  0  0  0
  1 32  1  0  0  0  0
  1 33  1  0  0  0  0
  1 34  1  0  0  0  0
  2  3  2  0  0  0  0
  2  7  1  0  0  0  0
  3  4  1  0  0  0  0
  3 35  1  0  0  0  0
  4  5  2  0  0  0  0
  4 36  1  0  0  0  0
  5  6  1  0  0  0  0
  5 37  1  0  0  0  0
  6  7  2  0  0  0  0
  6 38  1  0  0  0  0
  7  8  1  0  0  0  0
  8  9  2  0  0  0  0
  8 31  1  0  0  0  0
  9 10  1  0  0  0  0
 10 11  1  0  0  0  0
 10 30  2  0  0  0  0
 11 12  1  0  0  0  0
 11 39  1  0  0  0  0
 11 40  1  0  0  0  0
 12 13  1  0  0  0  0
 12 41  1  0  0  0  0
 13 14  2  0  0  0  0
 13 15  1  0  0  0  0
 15 16  1  0  0  0  0
 15 42  1  0  0  0  0
 15 43  1  0  0  0  0
 16 17  1  0  0  0  0
 17 18  2  0  0  0  0
 17 29  1  0  0  0  0
 18 19  1  0  0  0  0
 18 44  1  0  0  0  0
 19 20  2  0  0  0  0
 19 45  1  0  0  0  0
 20 21  1  0  0  0  0
 20 46  1  0  0  0  0
 21 22  1  0  0  0  0
 21 29  2  0  0  0  0
 22 23  1  0  0  0  0
 23 24  2  0  0  0  0
 23 28  1  0  0  0  0
 24 25  1  0  0  0  0
 24 47  1  0  0  0  0
 25 26  2  0  0  0  0
 25 48  1  0  0  0  0
 26 27  1  0  0  0  0
 26 49  1  0  0  0  0
 27 28  2  0  0  0  0
 27 50  1  0  0  0  0
 29 51  1  0  0  0  0
 30 31  1  0  0  0  0
M  END
$$$$
