
 OpenBabel01122422373D

 49 52  0  0  1  0  0  0  0  0999 V2000
    2.7682    1.1693    0.9836 C   0  0  0  0  0  0  0  0  0  0  0  0
    2.4714    0.0070    0.1421 N   0  0  0  0  0  0  0  0  0  0  0  0
    1.6069    0.0790   -0.9761 C   0  0  0  0  0  0  0  0  0  0  0  0
    1.6326   -0.7367   -1.8978 O   0  0  0  0  0  0  0  0  0  0  0  0
    0.6637    1.1866   -1.0963 C   0  0  0  0  0  0  0  0  0  0  0  0
   -0.0199    1.9042   -0.1361 C   0  0  0  0  0  0  0  0  0  0  0  0
   -0.8148    2.8252   -0.7884 N   0  0  0  0  0  0  0  0  0  0  0  0
   -1.6439    3.8042   -0.1653 C   0  0  0  0  0  0  0  0  0  0  0  0
   -2.4687    4.5982   -0.9592 C   0  0  0  0  0  0  0  0  0  0  0  0
   -3.2813    5.5420   -0.3375 C   0  0  0  0  0  0  0  0  0  0  0  0
   -3.2370    5.6758    1.0453 C   0  0  0  0  0  0  0  0  0  0  0  0
   -2.3825    4.8529    1.7596 C   0  0  0  0  0  0  0  0  0  0  0  0
   -1.5903    3.9179    1.1920 N   0  0  0  0  0  0  0  0  0  0  0  0
   -0.7217    2.6965   -2.1380 N   0  0  0  0  0  0  0  0  0  0  0  0
    0.1529    1.7039   -2.3097 C   0  0  0  0  0  0  0  0  0  0  0  0
    3.2229   -1.2039    0.4097 C   0  0  0  0  0  0  0  0  0  0  0  0
    2.7573   -2.4613   -0.0013 C   0  0  0  0  0  0  0  0  0  0  0  0
    3.4908   -3.6283    0.2389 C   0  0  0  0  0  0  0  0  0  0  0  0
    4.7218   -3.5643    0.8827 C   0  0  0  0  0  0  0  0  0  0  0  0
    5.2215   -2.3310    1.3167 C   0  0  0  0  0  0  0  0  0  0  0  0
    6.6091   -2.2032    1.9310 C   0  0  3  0  0  0  0  0  0  0  0  0
    6.7042   -2.9782    3.1276 O   0  0  0  0  0  0  0  0  0  0  0  0
    7.7245   -2.5601    0.9586 C   0  0  0  0  0  0  0  0  0  0  0  0
    7.8597   -1.8481   -0.2454 C   0  0  0  0  0  0  0  0  0  0  0  0
    8.8573   -2.1824   -1.1660 C   0  0  0  0  0  0  0  0  0  0  0  0
    9.7331   -3.2273   -0.8950 C   0  0  0  0  0  0  0  0  0  0  0  0
    9.6263   -3.9291    0.2998 C   0  0  0  0  0  0  0  0  0  0  0  0
    8.6320   -3.6022    1.2225 C   0  0  0  0  0  0  0  0  0  0  0  0
    4.4473   -1.1717    1.1018 C   0  0  0  0  0  0  0  0  0  0  0  0
    2.2654    2.0796    0.6656 H   0  0  0  0  0  0  0  0  0  0  0  0
    3.8308    1.4179    0.9352 H   0  0  0  0  0  0  0  0  0  0  0  0
    2.4754    0.9383    2.0134 H   0  0  0  0  0  0  0  0  0  0  0  0
   -0.0293    1.8539    0.9437 H   0  0  0  0  0  0  0  0  0  0  0  0
   -2.4960    4.4855   -2.0402 H   0  0  0  0  0  0  0  0  0  0  0  0
   -3.9446    6.1658   -0.9303 H   0  0  0  0  0  0  0  0  0  0  0  0
   -3.8567    6.4054    1.5558 H   0  0  0  0  0  0  0  0  0  0  0  0
   -2.3114    4.9260    2.8412 H   0  0  0  0  0  0  0  0  0  0  0  0
    0.3965    1.3856   -3.3170 H   0  0  0  0  0  0  0  0  0  0  0  0
    1.8024   -2.5728   -0.5089 H   0  0  0  0  0  0  0  0  0  0  0  0
    3.1034   -4.5857   -0.1010 H   0  0  0  0  0  0  0  0  0  0  0  0
    5.2995   -4.4765    1.0155 H   0  0  0  0  0  0  0  0  0  0  0  0
    6.7830   -1.1668    2.2432 H   0  0  0  0  0  0  0  0  0  0  0  0
    6.0242   -3.6686    3.0863 H   0  0  0  0  0  0  0  0  0  0  0  0
    7.1808   -1.0321   -0.4838 H   0  0  0  0  0  0  0  0  0  0  0  0
    8.9390   -1.6280   -2.0985 H   0  0  0  0  0  0  0  0  0  0  0  0
   10.5045   -3.4910   -1.6142 H   0  0  0  0  0  0  0  0  0  0  0  0
   10.3177   -4.7406    0.5205 H   0  0  0  0  0  0  0  0  0  0  0  0
    8.5731   -4.1593    2.1507 H   0  0  0  0  0  0  0  0  0  0  0  0
    4.8740   -0.2324    1.4374 H   0  0  0  0  0  0  0  0  0  0  0  0
  1  2  1  0  0  0  0
  1 30  1  0  0  0  0
  1 31  1  0  0  0  0
  1 32  1  0  0  0  0
  2  3  1  0  0  0  0
  2 16  1  0  0  0  0
  3  4  2  0  0  0  0
  3  5  1  0  0  0  0
  5  6  2  0  0  0  0
  5 15  1  0  0  0  0
  6  7  1  0  0  0  0
  6 33  1  0  0  0  0
  7  8  1  0  0  0  0
  7 14  1  0  0  0  0
  8  9  2  0  0  0  0
  8 13  1  0  0  0  0
  9 10  1  0  0  0  0
  9 34  1  0  0  0  0
 10 11  2  0  0  0  0
 10 35  1  0  0  0  0
 11 12  1  0  0  0  0
 11 36  1  0  0  0  0
 12 13  2  0  0  0  0
 12 37  1  0  0  0  0
 14 15  2  0  0  0  0
 15 38  1  0  0  0  0
 16 17  2  0  0  0  0
 16 29  1  0  0  0  0
 17 18  1  0  0  0  0
 17 39  1  0  0  0  0
 18 19  2  0  0  0  0
 18 40  1  0  0  0  0
 19 20  1  0  0  0  0
 19 41  1  0  0  0  0
 20 21  1  0  0  0  0
 20 29  2  0  0  0  0
 21 22  1  0  0  0  0
 21 23  1  0  0  0  0
 21 42  1  0  0  0  0
 22 43  1  0  0  0  0
 23 24  2  0  0  0  0
 23 28  1  0  0  0  0
 24 25  1  0  0  0  0
 24 44  1  0  0  0  0
 25 26  2  0  0  0  0
 25 45  1  0  0  0  0
 26 27  1  0  0  0  0
 26 46  1  0  0  0  0
 27 28  2  0  0  0  0
 27 47  1  0  0  0  0
 28 48  1  0  0  0  0
 29 49  1  0  0  0  0
M  END
$$$$
