
 OpenBabel01122422373D

 43 46  0  0  0  0  0  0  0  0999 V2000
    2.6214    0.0506    1.2392 O   0  0  0  0  0  0  0  0  0  0  0  0
    2.2105   -0.0720    0.0917 C   0  0  0  0  0  0  0  0  0  0  0  0
    0.8731   -0.1578   -0.2473 N   0  0  0  0  0  0  0  0  0  0  0  0
   -0.1992   -0.1409    0.6711 C   0  0  0  0  0  0  0  0  0  0  0  0
   -0.0785    0.2782    1.9994 C   0  0  0  0  0  0  0  0  0  0  0  0
   -1.1629    0.1936    2.8791 C   0  0  0  0  0  0  0  0  0  0  0  0
   -2.3977   -0.3033    2.4477 C   0  0  0  0  0  0  0  0  0  0  0  0
   -3.4905   -0.4148    3.3979 C   0  0  0  0  0  0  0  0  0  0  0  0
   -3.5495   -0.0423    4.6626 N   0  0  0  0  0  0  0  0  0  0  0  0
   -4.8041   -0.3928    5.1187 N   0  0  0  0  0  0  0  0  0  0  0  0
   -5.4114   -0.9557    4.1023 C   0  0  0  0  0  0  0  0  0  0  0  0
   -4.6508   -1.0106    2.9774 O   0  0  0  0  0  0  0  0  0  0  0  0
   -2.5159   -0.6787    1.1064 C   0  0  0  0  0  0  0  0  0  0  0  0
   -3.6728   -1.1520    0.6204 F   0  0  0  0  0  0  0  0  0  0  0  0
   -1.4386   -0.5925    0.2223 C   0  0  0  0  0  0  0  0  0  0  0  0
    3.0314   -0.1734   -1.0216 N   0  0  0  0  0  0  0  0  0  0  0  0
    4.4130   -0.1932   -1.0193 C   0  0  0  0  0  0  0  0  0  0  0  0
    5.1717   -0.1938    0.0829 C   0  0  0  0  0  0  0  0  0  0  0  0
    6.6498   -0.0870    0.0293 C   0  0  0  0  0  0  0  0  0  0  0  0
    7.2162   -0.0107    1.1162 O   0  0  0  0  0  0  0  0  0  0  0  0
    7.2311   -0.0207   -1.2572 N   0  0  0  0  0  0  0  0  0  0  0  0
    8.6578    0.2147   -1.3895 C   0  0  0  0  0  0  0  0  0  0  0  0
    9.5633   -0.0542   -0.3499 C   0  0  0  0  0  0  0  0  0  0  0  0
   10.9259    0.2400   -0.4626 C   0  0  0  0  0  0  0  0  0  0  0  0
   11.4236    0.7930   -1.6348 C   0  0  0  0  0  0  0  0  0  0  0  0
   10.5584    1.0505   -2.6906 C   0  0  0  0  0  0  0  0  0  0  0  0
    9.1923    0.7670   -2.5686 C   0  0  0  0  0  0  0  0  0  0  0  0
    6.4085   -0.1350   -2.3806 C   0  0  0  0  0  0  0  0  0  0  0  0
    5.0744   -0.2231   -2.3009 C   0  0  0  0  0  0  0  0  0  0  0  0
    0.6621   -0.4698   -1.1827 H   0  0  0  0  0  0  0  0  0  0  0  0
    0.8513    0.6773    2.3966 H   0  0  0  0  0  0  0  0  0  0  0  0
   -1.0214    0.5077    3.9136 H   0  0  0  0  0  0  0  0  0  0  0  0
   -6.4067   -1.3679    4.0483 H   0  0  0  0  0  0  0  0  0  0  0  0
   -1.5892   -0.9163   -0.8024 H   0  0  0  0  0  0  0  0  0  0  0  0
    2.5787   -0.1056   -1.9204 H   0  0  0  0  0  0  0  0  0  0  0  0
    4.7888   -0.2047    1.0936 H   0  0  0  0  0  0  0  0  0  0  0  0
    9.2491   -0.5135    0.5827 H   0  0  0  0  0  0  0  0  0  0  0  0
   11.5881    0.0379    0.3748 H   0  0  0  0  0  0  0  0  0  0  0  0
   12.4802    1.0294   -1.7190 H   0  0  0  0  0  0  0  0  0  0  0  0
   10.9393    1.4934   -3.6071 H   0  0  0  0  0  0  0  0  0  0  0  0
    8.5605    1.0461   -3.4057 H   0  0  0  0  0  0  0  0  0  0  0  0
    6.8824   -0.1882   -3.3538 H   0  0  0  0  0  0  0  0  0  0  0  0
    4.4891   -0.3412   -3.2067 H   0  0  0  0  0  0  0  0  0  0  0  0
  1  2  2  0  0  0  0
  2  3  1  0  0  0  0
  2 16  1  0  0  0  0
  3  4  1  0  0  0  0
  3 30  1  0  0  0  0
  4  5  2  0  0  0  0
  4 15  1  0  0  0  0
  5  6  1  0  0  0  0
  5 31  1  0  0  0  0
  6  7  2  0  0  0  0
  6 32  1  0  0  0  0
  7  8  1  0  0  0  0
  7 13  1  0  0  0  0
  8  9  2  0  0  0  0
  8 12  1  0  0  0  0
  9 10  1  0  0  0  0
 10 11  2  0  0  0  0
 11 12  1  0  0  0  0
 11 33  1  0  0  0  0
 13 14  1  0  0  0  0
 13 15  2  0  0  0  0
 15 34  1  0  0  0  0
 16 17  1  0  0  0  0
 16 35  1  0  0  0  0
 17 18  2  0  0  0  0
 17 29  1  0  0  0  0
 18 19  1  0  0  0  0
 18 36  1  0  0  0  0
 19 20  2  0  0  0  0
 19 21  1  0  0  0  0
 21 22  1  0  0  0  0
 21 28  1  0  0  0  0
 22 23  2  0  0  0  0
 22 27  1  0  0  0  0
 23 24  1  0  0  0  0
 23 37  1  0  0  0  0
 24 25  2  0  0  0  0
 24 38  1  0  0  0  0
 25 26  1  0  0  0  0
 25 39  1  0  0  0  0
 26 27  2  0  0  0  0
 26 40  1  0  0  0  0
 27 41  1  0  0  0  0
 28 29  2  0  0  0  0
 28 42  1  0  0  0  0
 29 43  1  0  0  0  0
M  END
$$$$
