
 OpenBabel01122422373D

 40 43  0  0  0  0  0  0  0  0999 V2000
    0.9126    0.0995    0.1491 O   0  0  0  0  0  0  0  0  0  0  0  0
    2.1256   -0.0706    0.0433 C   0  0  0  0  0  0  0  0  0  0  0  0
    2.7867   -0.5341   -1.0839 N   0  0  0  0  0  0  0  0  0  0  0  0
    2.1537   -0.8343   -2.3124 C   0  0  0  0  0  0  0  0  0  0  0  0
    0.8786   -0.3553   -2.6247 C   0  0  0  0  0  0  0  0  0  0  0  0
    0.2342   -0.7283   -3.8029 C   0  0  0  0  0  0  0  0  0  0  0  0
    0.8544   -1.5876   -4.7120 C   0  0  0  0  0  0  0  0  0  0  0  0
    0.1250   -2.0284   -5.8975 C   0  0  0  0  0  0  0  0  0  0  0  0
    0.7382   -2.3678   -7.0420 N   0  0  0  0  0  0  0  0  0  0  0  0
   -0.2613   -2.7252   -7.9293 O   0  0  0  0  0  0  0  0  0  0  0  0
   -1.4705   -2.6192   -7.3204 C   0  0  0  0  0  0  0  0  0  0  0  0
   -2.6609   -2.9915   -8.1028 C   0  0  0  0  0  0  0  0  0  0  0  0
   -2.3724   -3.4071   -9.3610 F   0  0  0  0  0  0  0  0  0  0  0  0
   -3.3515   -3.9983   -7.5048 F   0  0  0  0  0  0  0  0  0  0  0  0
   -3.5274   -1.9511   -8.2203 F   0  0  0  0  0  0  0  0  0  0  0  0
   -1.2824   -2.1747   -6.0350 C   0  0  0  0  0  0  0  0  0  0  0  0
    2.1578   -2.0242   -4.4347 C   0  0  0  0  0  0  0  0  0  0  0  0
    2.8084   -1.6427   -3.2469 C   0  0  0  0  0  0  0  0  0  0  0  0
    2.9658    0.2036    1.2451 C   0  0  0  0  0  0  0  0  0  0  0  0
    2.3066    0.5358    2.4315 C   0  0  0  0  0  0  0  0  0  0  0  0
    3.0577    0.8337    3.5584 C   0  0  0  0  0  0  0  0  0  0  0  0
    4.4426    0.7999    3.4530 C   0  0  0  0  0  0  0  0  0  0  0  0
    5.3038    1.1341    4.6069 C   0  0  0  0  0  0  0  0  0  0  0  0
    4.8315    1.4214    5.6992 O   0  0  0  0  0  0  0  0  0  0  0  0
    6.6610    1.1055    4.3748 N   0  0  0  0  0  0  0  0  0  0  0  0
    7.2340    0.7856    3.1717 C   0  0  0  0  0  0  0  0  0  0  0  0
    6.4872    0.4615    2.1088 C   0  0  0  0  0  0  0  0  0  0  0  0
    5.0298    0.4597    2.2309 C   0  0  0  0  0  0  0  0  0  0  0  0
    4.3213    0.1428    1.1132 N   0  0  0  0  0  0  0  0  0  0  0  0
    3.7664   -0.7733   -0.9639 H   0  0  0  0  0  0  0  0  0  0  0  0
    0.3497    0.3309   -1.9707 H   0  0  0  0  0  0  0  0  0  0  0  0
   -0.7613   -0.3307   -3.9877 H   0  0  0  0  0  0  0  0  0  0  0  0
   -2.0504   -2.0000   -5.2951 H   0  0  0  0  0  0  0  0  0  0  0  0
    2.6691   -2.6891   -5.1292 H   0  0  0  0  0  0  0  0  0  0  0  0
    3.8063   -2.0250   -3.0518 H   0  0  0  0  0  0  0  0  0  0  0  0
    1.2210    0.5714    2.4745 H   0  0  0  0  0  0  0  0  0  0  0  0
    2.5719    1.0989    4.4933 H   0  0  0  0  0  0  0  0  0  0  0  0
    7.2427    1.3461    5.1706 H   0  0  0  0  0  0  0  0  0  0  0  0
    8.3185    0.8119    3.1323 H   0  0  0  0  0  0  0  0  0  0  0  0
    6.9235    0.2111    1.1500 H   0  0  0  0  0  0  0  0  0  0  0  0
  1  2  2  0  0  0  0
  2  3  1  0  0  0  0
  2 19  1  0  0  0  0
  3  4  1  0  0  0  0
  3 30  1  0  0  0  0
  4  5  2  0  0  0  0
  4 18  1  0  0  0  0
  5  6  1  0  0  0  0
  5 31  1  0  0  0  0
  6  7  2  0  0  0  0
  6 32  1  0  0  0  0
  7  8  1  0  0  0  0
  7 17  1  0  0  0  0
  8  9  2  0  0  0  0
  8 16  1  0  0  0  0
  9 10  1  0  0  0  0
 10 11  1  0  0  0  0
 11 12  1  0  0  0  0
 11 16  2  0  0  0  0
 12 13  1  0  0  0  0
 12 14  1  0  0  0  0
 12 15  1  0  0  0  0
 16 33  1  0  0  0  0
 17 18  2  0  0  0  0
 17 34  1  0  0  0  0
 18 35  1  0  0  0  0
 19 20  2  0  0  0  0
 19 29  1  0  0  0  0
 20 21  1  0  0  0  0
 20 36  1  0  0  0  0
 21 22  2  0  0  0  0
 21 37  1  0  0  0  0
 22 23  1  0  0  0  0
 22 28  1  0  0  0  0
 23 24  2  0  0  0  0
 23 25  1  0  0  0  0
 25 26  1  0  0  0  0
 25 38  1  0  0  0  0
 26 27  2  0  0  0  0
 26 39  1  0  0  0  0
 27 28  1  0  0  0  0
 27 40  1  0  0  0  0
 28 29  2  0  0  0  0
M  END
$$$$
