
 OpenBabel01122422373D

 41 44  0  0  0  0  0  0  0  0999 V2000
    1.2090    0.7277    0.2055 O   0  0  0  0  0  0  0  0  0  0  0  0
    2.3177    0.2490   -0.0025 C   0  0  0  0  0  0  0  0  0  0  0  0
    2.8748   -0.0157   -1.2437 N   0  0  0  0  0  0  0  0  0  0  0  0
    2.2811    0.2593   -2.4952 C   0  0  0  0  0  0  0  0  0  0  0  0
    1.1731    1.0944   -2.6281 C   0  0  0  0  0  0  0  0  0  0  0  0
    0.5927    1.3297   -3.8753 C   0  0  0  0  0  0  0  0  0  0  0  0
   -0.5204    2.2604   -3.9947 C   0  0  0  0  0  0  0  0  0  0  0  0
   -1.1790    2.5344   -5.1358 N   0  0  0  0  0  0  0  0  0  0  0  0
   -2.0393    3.4612   -4.6952 N   0  0  0  0  0  0  0  0  0  0  0  0
   -1.9534    3.7821   -3.4022 N   0  0  0  0  0  0  0  0  0  0  0  0
   -0.9794    3.0149   -2.9364 N   0  0  0  0  0  0  0  0  0  0  0  0
    1.1329    0.6972   -5.0017 C   0  0  0  0  0  0  0  0  0  0  0  0
    2.2927   -0.0990   -4.9251 C   0  0  0  0  0  0  0  0  0  0  0  0
    2.9170   -0.6405   -6.1576 C   0  0  0  0  0  0  0  0  0  0  0  0
    2.8700    0.0809   -7.3621 C   0  0  0  0  0  0  0  0  0  0  0  0
    3.4802   -0.4289   -8.4975 C   0  0  0  0  0  0  0  0  0  0  0  0
    4.1435   -1.5991   -8.5260 N   0  0  0  0  0  0  0  0  0  0  0  0
    4.1861   -2.2898   -7.3684 C   0  0  0  0  0  0  0  0  0  0  0  0
    3.5969   -1.8649   -6.1853 C   0  0  0  0  0  0  0  0  0  0  0  0
    2.8517   -0.3051   -3.6466 C   0  0  0  0  0  0  0  0  0  0  0  0
    3.1355   -0.1228    1.1724 C   0  0  0  0  0  0  0  0  0  0  0  0
    2.4804   -0.5978    2.3151 C   0  0  0  0  0  0  0  0  0  0  0  0
    1.1548   -0.8051    2.3230 F   0  0  0  0  0  0  0  0  0  0  0  0
    3.1838   -0.9017    3.4800 C   0  0  0  0  0  0  0  0  0  0  0  0
    4.5641   -0.7312    3.5188 C   0  0  0  0  0  0  0  0  0  0  0  0
    5.2200   -0.2618    2.3861 C   0  0  0  0  0  0  0  0  0  0  0  0
    6.5488   -0.0898    2.4159 F   0  0  0  0  0  0  0  0  0  0  0  0
    4.5226    0.0406    1.2149 C   0  0  0  0  0  0  0  0  0  0  0  0
    5.2232    0.5027    0.1309 O   0  0  0  0  0  0  0  0  0  0  0  0
    3.7876   -0.4576   -1.2524 H   0  0  0  0  0  0  0  0  0  0  0  0
    0.7589    1.6072   -1.7647 H   0  0  0  0  0  0  0  0  0  0  0  0
   -2.7160    3.9043   -5.3073 H   0  0  0  0  0  0  0  0  0  0  0  0
    0.6449    0.8538   -5.9628 H   0  0  0  0  0  0  0  0  0  0  0  0
    2.3772    1.0457   -7.4286 H   0  0  0  0  0  0  0  0  0  0  0  0
    3.4508    0.1167   -9.4363 H   0  0  0  0  0  0  0  0  0  0  0  0
    4.7307   -3.2297   -7.4177 H   0  0  0  0  0  0  0  0  0  0  0  0
    3.6710   -2.4979   -5.3078 H   0  0  0  0  0  0  0  0  0  0  0  0
    3.7477   -0.9129   -3.5454 H   0  0  0  0  0  0  0  0  0  0  0  0
    2.6416   -1.2693    4.3476 H   0  0  0  0  0  0  0  0  0  0  0  0
    5.1280   -0.9592    4.4181 H   0  0  0  0  0  0  0  0  0  0  0  0
    6.1308    0.7081    0.4340 H   0  0  0  0  0  0  0  0  0  0  0  0
  1  2  2  0  0  0  0
  2  3  1  0  0  0  0
  2 21  1  0  0  0  0
  3  4  1  0  0  0  0
  3 30  1  0  0  0  0
  4  5  2  0  0  0  0
  4 20  1  0  0  0  0
  5  6  1  0  0  0  0
  5 31  1  0  0  0  0
  6  7  1  0  0  0  0
  6 12  2  0  0  0  0
  7  8  2  0  0  0  0
  7 11  1  0  0  0  0
  8  9  1  0  0  0  0
  9 10  1  0  0  0  0
  9 32  1  0  0  0  0
 10 11  2  0  0  0  0
 12 13  1  0  0  0  0
 12 33  1  0  0  0  0
 13 14  1  0  0  0  0
 13 20  2  0  0  0  0
 14 15  2  0  0  0  0
 14 19  1  0  0  0  0
 15 16  1  0  0  0  0
 15 34  1  0  0  0  0
 16 17  2  0  0  0  0
 16 35  1  0  0  0  0
 17 18  1  0  0  0  0
 18 19  2  0  0  0  0
 18 36  1  0  0  0  0
 19 37  1  0  0  0  0
 20 38  1  0  0  0  0
 21 22  2  0  0  0  0
 21 28  1  0  0  0  0
 22 23  1  0  0  0  0
 22 24  1  0  0  0  0
 24 25  2  0  0  0  0
 24 39  1  0  0  0  0
 25 26  1  0  0  0  0
 25 40  1  0  0  0  0
 26 27  1  0  0  0  0
 26 28  2  0  0  0  0
 28 29  1  0  0  0  0
 29 41  1  0  0  0  0
M  END
$$$$
