
 OpenBabel01122422353D

 43 45  0  0  0  0  0  0  0  0999 V2000
    1.1818   -0.2965   -0.3122 O   0  0  0  0  0  0  0  0  0  0  0  0
    2.3461    0.0233   -0.0880 C   0  0  0  0  0  0  0  0  0  0  0  0
    2.9855   -0.0375    1.1414 N   0  0  0  0  0  0  0  0  0  0  0  0
    2.4186   -0.6396    2.2906 C   0  0  0  0  0  0  0  0  0  0  0  0
    1.3910   -1.5793    2.1871 C   0  0  0  0  0  0  0  0  0  0  0  0
    0.7715   -2.1255    3.3095 C   0  0  0  0  0  0  0  0  0  0  0  0
   -0.2873   -3.0527    3.1963 N   0  0  0  0  0  0  0  0  0  0  0  0
   -0.5845   -3.7904    2.0573 C   0  0  0  0  0  0  0  0  0  0  0  0
    0.0997   -3.8717    1.0467 O   0  0  0  0  0  0  0  0  0  0  0  0
   -1.8682   -4.5408    2.0838 C   0  0  0  0  0  0  0  0  0  0  0  0
   -2.2797   -5.1371    3.2906 C   0  0  0  0  0  0  0  0  0  0  0  0
   -3.5165   -5.7693    3.3758 C   0  0  0  0  0  0  0  0  0  0  0  0
   -4.3383   -5.8193    2.2555 C   0  0  0  0  0  0  0  0  0  0  0  0
   -3.9033   -5.2807    1.0439 C   0  0  0  0  0  0  0  0  0  0  0  0
   -4.7266   -5.3824   -0.0072 F   0  0  0  0  0  0  0  0  0  0  0  0
   -2.6621   -4.6494    0.9229 C   0  0  0  0  0  0  0  0  0  0  0  0
   -2.2062   -4.1612   -0.4304 C   0  0  0  0  0  0  0  0  0  0  0  0
   -1.2560   -4.9703   -0.9782 F   0  0  0  0  0  0  0  0  0  0  0  0
   -3.2019   -4.1198   -1.3665 F   0  0  0  0  0  0  0  0  0  0  0  0
    1.1847   -1.7082    4.5738 C   0  0  0  0  0  0  0  0  0  0  0  0
    2.2587   -0.8194    4.6981 C   0  0  0  0  0  0  0  0  0  0  0  0
    2.8869   -0.2982    3.5586 C   0  0  0  0  0  0  0  0  0  0  0  0
    3.1606    0.6210   -1.1935 C   0  0  0  0  0  0  0  0  0  0  0  0
    2.4953    1.1238   -2.2467 C   0  0  0  0  0  0  0  0  0  0  0  0
    3.2161    1.6784   -3.3633 C   0  0  0  0  0  0  0  0  0  0  0  0
    4.5556    1.6805   -3.3700 C   0  0  0  0  0  0  0  0  0  0  0  0
    5.3006    1.1041   -2.2165 C   0  0  0  0  0  0  0  0  0  0  0  0
    6.5228    1.0641   -2.2082 O   0  0  0  0  0  0  0  0  0  0  0  0
    4.5372    0.6211   -1.1796 N   0  0  0  0  0  0  0  0  0  0  0  0
    3.8121    0.5284    1.2728 H   0  0  0  0  0  0  0  0  0  0  0  0
    1.0496   -1.8798    1.2055 H   0  0  0  0  0  0  0  0  0  0  0  0
   -0.8536   -3.1747    4.0237 H   0  0  0  0  0  0  0  0  0  0  0  0
   -1.6333   -5.1425    4.1618 H   0  0  0  0  0  0  0  0  0  0  0  0
   -3.8343   -6.2255    4.3081 H   0  0  0  0  0  0  0  0  0  0  0  0
   -5.3111   -6.2975    2.3032 H   0  0  0  0  0  0  0  0  0  0  0  0
   -1.8174   -3.1405   -0.3726 H   0  0  0  0  0  0  0  0  0  0  0  0
    0.7103   -2.0928    5.4730 H   0  0  0  0  0  0  0  0  0  0  0  0
    2.6039   -0.5277    5.6874 H   0  0  0  0  0  0  0  0  0  0  0  0
    3.7097    0.3999    3.6852 H   0  0  0  0  0  0  0  0  0  0  0  0
    1.4077    1.1097   -2.2965 H   0  0  0  0  0  0  0  0  0  0  0  0
    2.6431    2.0767   -4.1951 H   0  0  0  0  0  0  0  0  0  0  0  0
    5.1384    2.0744   -4.1917 H   0  0  0  0  0  0  0  0  0  0  0  0
    5.0460    0.1487   -0.4454 H   0  0  0  0  0  0  0  0  0  0  0  0
  1  2  2  0  0  0  0
  2  3  1  0  0  0  0
  2 23  1  0  0  0  0
  3  4  1  0  0  0  0
  3 30  1  0  0  0  0
  4  5  2  0  0  0  0
  4 22  1  0  0  0  0
  5  6  1  0  0  0  0
  5 31  1  0  0  0  0
  6  7  1  0  0  0  0
  6 20  2  0  0  0  0
  7  8  1  0  0  0  0
  7 32  1  0  0  0  0
  8  9  2  0  0  0  0
  8 10  1  0  0  0  0
 10 11  2  0  0  0  0
 10 16  1  0  0  0  0
 11 12  1  0  0  0  0
 11 33  1  0  0  0  0
 12 13  2  0  0  0  0
 12 34  1  0  0  0  0
 13 14  1  0  0  0  0
 13 35  1  0  0  0  0
 14 15  1  0  0  0  0
 14 16  2  0  0  0  0
 16 17  1  0  0  0  0
 17 18  1  0  0  0  0
 17 19  1  0  0  0  0
 17 36  1  0  0  0  0
 20 21  1  0  0  0  0
 20 37  1  0  0  0  0
 21 22  2  0  0  0  0
 21 38  1  0  0  0  0
 22 39  1  0  0  0  0
 23 24  2  0  0  0  0
 23 29  1  0  0  0  0
 24 25  1  0  0  0  0
 24 40  1  0  0  0  0
 25 26  2  0  0  0  0
 25 41  1  0  0  0  0
 26 27  1  0  0  0  0
 26 42  1  0  0  0  0
 27 28  2  0  0  0  0
 27 29  1  0  0  0  0
 29 43  1  0  0  0  0
M  END
$$$$
