
 OpenBabel01122422373D

 41 44  0  0  0  0  0  0  0  0999 V2000
    1.3882   -0.0508   -0.6500 O   0  0  0  0  0  0  0  0  0  0  0  0
    2.3924   -0.0936    0.0602 C   0  0  0  0  0  0  0  0  0  0  0  0
    3.0011    1.1777    0.6042 C   0  0  0  0  0  0  0  0  0  0  0  0
    4.2760    1.6078   -0.0785 C   0  0  0  0  0  0  0  0  0  0  0  0
    5.3408    1.7470    0.6513 N   0  0  0  0  0  0  0  0  0  0  0  0
    6.4744    2.1557    0.0100 N   0  0  0  0  0  0  0  0  0  0  0  0
    6.5859    2.4492   -1.3251 C   0  0  0  0  0  0  0  0  0  0  0  0
    7.6298    2.8358   -1.8614 O   0  0  0  0  0  0  0  0  0  0  0  0
    5.3545    2.2683   -2.1268 C   0  0  0  0  0  0  0  0  0  0  0  0
    4.2281    1.8603   -1.5382 C   0  0  0  0  0  0  0  0  0  0  0  0
    2.9913   -1.4190    0.3968 C   0  0  0  0  0  0  0  0  0  0  0  0
    2.3475   -2.5922   -0.0190 C   0  0  0  0  0  0  0  0  0  0  0  0
    2.8272   -3.8624    0.3579 C   0  0  0  0  0  0  0  0  0  0  0  0
    3.9710   -4.0017    1.1572 C   0  0  0  0  0  0  0  0  0  0  0  0
    4.5081   -5.3135    1.6216 C   0  0  0  0  0  0  0  0  0  0  0  0
    4.0059   -6.5730    1.2949 C   0  0  0  0  0  0  0  0  0  0  0  0
    4.5663   -7.7673    1.6587 N   0  0  0  0  0  0  0  0  0  0  0  0
    5.7660   -7.7548    2.2955 C   0  0  0  0  0  0  0  0  0  0  0  0
    6.5071   -8.8979    2.6251 C   0  0  0  0  0  0  0  0  0  0  0  0
    5.9808  -10.1181    2.4305 F   0  0  0  0  0  0  0  0  0  0  0  0
    7.8116   -8.8302    3.1354 C   0  0  0  0  0  0  0  0  0  0  0  0
    8.4105   -7.5972    3.3524 C   0  0  0  0  0  0  0  0  0  0  0  0
    7.6642   -6.4493    3.1461 C   0  0  0  0  0  0  0  0  0  0  0  0
    6.3590   -6.5353    2.6424 C   0  0  0  0  0  0  0  0  0  0  0  0
    5.6546   -5.3594    2.4186 C   0  0  0  0  0  0  0  0  0  0  0  0
    4.6425   -2.7971    1.4752 C   0  0  0  0  0  0  0  0  0  0  0  0
    4.1639   -1.5326    1.1260 C   0  0  0  0  0  0  0  0  0  0  0  0
    3.1507    1.0853    1.6862 H   0  0  0  0  0  0  0  0  0  0  0  0
    2.2714    1.9855    0.4721 H   0  0  0  0  0  0  0  0  0  0  0  0
    7.3035    2.2843    0.5835 H   0  0  0  0  0  0  0  0  0  0  0  0
    5.4211    2.4866   -3.1852 H   0  0  0  0  0  0  0  0  0  0  0  0
    3.3014    1.7190   -2.0788 H   0  0  0  0  0  0  0  0  0  0  0  0
    1.4500   -2.5287   -0.6330 H   0  0  0  0  0  0  0  0  0  0  0  0
    2.2748   -4.7294    0.0029 H   0  0  0  0  0  0  0  0  0  0  0  0
    3.1083   -6.6961    0.6934 H   0  0  0  0  0  0  0  0  0  0  0  0
    8.3579   -9.7459    3.3364 H   0  0  0  0  0  0  0  0  0  0  0  0
    9.4446   -7.5218    3.6770 H   0  0  0  0  0  0  0  0  0  0  0  0
    8.1249   -5.4768    3.3124 H   0  0  0  0  0  0  0  0  0  0  0  0
    6.0666   -4.4592    2.8579 H   0  0  0  0  0  0  0  0  0  0  0  0
    5.5853   -2.7916    2.0139 H   0  0  0  0  0  0  0  0  0  0  0  0
    4.7430   -0.6748    1.4528 H   0  0  0  0  0  0  0  0  0  0  0  0
  1  2  2  0  0  0  0
  2  3  1  0  0  0  0
  2 11  1  0  0  0  0
  3  4  1  0  0  0  0
  3 28  1  0  0  0  0
  3 29  1  0  0  0  0
  4  5  2  0  0  0  0
  4 10  1  0  0  0  0
  5  6  1  0  0  0  0
  6  7  1  0  0  0  0
  6 30  1  0  0  0  0
  7  8  2  0  0  0  0
  7  9  1  0  0  0  0
  9 10  2  0  0  0  0
  9 31  1  0  0  0  0
 10 32  1  0  0  0  0
 11 12  2  0  0  0  0
 11 27  1  0  0  0  0
 12 13  1  0  0  0  0
 12 33  1  0  0  0  0
 13 14  2  0  0  0  0
 13 34  1  0  0  0  0
 14 15  1  0  0  0  0
 14 26  1  0  0  0  0
 15 16  2  0  0  0  0
 15 25  1  0  0  0  0
 16 17  1  0  0  0  0
 16 35  1  0  0  0  0
 17 18  2  0  0  0  0
 18 19  1  0  0  0  0
 18 24  1  0  0  0  0
 19 20  1  0  0  0  0
 19 21  2  0  0  0  0
 21 22  1  0  0  0  0
 21 36  1  0  0  0  0
 22 23  2  0  0  0  0
 22 37  1  0  0  0  0
 23 24  1  0  0  0  0
 23 38  1  0  0  0  0
 24 25  2  0  0  0  0
 25 39  1  0  0  0  0
 26 27  2  0  0  0  0
 26 40  1  0  0  0  0
 27 41  1  0  0  0  0
M  END
$$$$
