
 OpenBabel01122422373D

 51 54  0  0  0  0  0  0  0  0999 V2000
    1.3926    0.5081    0.8168 O   0  0  0  0  0  0  0  0  0  0  0  0
    2.1494    0.1155   -0.0667 C   0  0  0  0  0  0  0  0  0  0  0  0
    2.8340   -1.2277   -0.0309 C   0  0  0  0  0  0  0  0  0  0  0  0
    1.8915   -2.4000    0.0249 C   0  0  0  0  0  0  0  0  0  0  0  0
    0.9662   -2.6634   -0.9923 C   0  0  0  0  0  0  0  0  0  0  0  0
    0.1759   -3.8149   -0.9439 C   0  0  0  0  0  0  0  0  0  0  0  0
    0.3336   -4.7284    0.1054 C   0  0  0  0  0  0  0  0  0  0  0  0
    1.2748   -4.4893    1.1045 C   0  0  0  0  0  0  0  0  0  0  0  0
    1.4299   -5.4712    2.0490 O   0  0  0  0  0  0  0  0  0  0  0  0
    2.7098   -5.4606    2.6875 C   0  0  0  0  0  0  0  0  0  0  0  0
    2.9781   -6.7940    3.3134 C   0  0  0  0  0  0  0  0  0  0  0  0
    2.2039   -7.2757    4.3712 C   0  0  0  0  0  0  0  0  0  0  0  0
    2.5088   -8.5058    4.9376 C   0  0  0  0  0  0  0  0  0  0  0  0
    3.5829   -9.2160    4.4249 C   0  0  0  0  0  0  0  0  0  0  0  0
    4.3534   -8.7828    3.4056 N   0  0  0  0  0  0  0  0  0  0  0  0
    4.0331   -7.5874    2.8720 C   0  0  0  0  0  0  0  0  0  0  0  0
    2.0077   -3.3027    1.0875 C   0  0  0  0  0  0  0  0  0  0  0  0
    2.4805    0.8698   -1.1638 N   0  0  0  0  0  0  0  0  0  0  0  0
    1.9082    2.1703   -1.3649 C   0  0  0  0  0  0  0  0  0  0  0  0
    1.7644    2.4463   -2.8171 C   0  0  0  0  0  0  0  0  0  0  0  0
    1.3422    3.6182   -3.4195 C   0  0  0  0  0  0  0  0  0  0  0  0
    0.9254    4.9326   -2.9486 C   0  0  0  0  0  0  0  0  0  0  0  0
    1.0870    6.0681   -3.7527 C   0  0  0  0  0  0  0  0  0  0  0  0
    0.7765    7.3400   -3.2620 C   0  0  0  0  0  0  0  0  0  0  0  0
    0.2978    7.4944   -1.9632 C   0  0  0  0  0  0  0  0  0  0  0  0
    0.1041    6.3764   -1.1618 C   0  0  0  0  0  0  0  0  0  0  0  0
    0.4057    5.1055   -1.6558 C   0  0  0  0  0  0  0  0  0  0  0  0
    1.3880    3.4180   -4.7751 O   0  0  0  0  0  0  0  0  0  0  0  0
    1.8346    2.1407   -4.9117 C   0  0  0  0  0  0  0  0  0  0  0  0
    2.0935    1.5127   -3.7873 N   0  0  0  0  0  0  0  0  0  0  0  0
    3.4892   -1.2108    0.8492 H   0  0  0  0  0  0  0  0  0  0  0  0
    3.4941   -1.3585   -0.8957 H   0  0  0  0  0  0  0  0  0  0  0  0
    0.8556   -1.9817   -1.8322 H   0  0  0  0  0  0  0  0  0  0  0  0
   -0.5442   -4.0160   -1.7298 H   0  0  0  0  0  0  0  0  0  0  0  0
   -0.2597   -5.6387    0.1248 H   0  0  0  0  0  0  0  0  0  0  0  0
    2.7291   -4.6917    3.4701 H   0  0  0  0  0  0  0  0  0  0  0  0
    3.5066   -5.2475    1.9619 H   0  0  0  0  0  0  0  0  0  0  0  0
    1.3680   -6.6898    4.7487 H   0  0  0  0  0  0  0  0  0  0  0  0
    1.9224   -8.9037    5.7588 H   0  0  0  0  0  0  0  0  0  0  0  0
    3.8578  -10.1832    4.8344 H   0  0  0  0  0  0  0  0  0  0  0  0
    4.6754   -7.2706    2.0537 H   0  0  0  0  0  0  0  0  0  0  0  0
    2.7018   -3.0656    1.8870 H   0  0  0  0  0  0  0  0  0  0  0  0
    3.0755    0.5088   -1.9000 H   0  0  0  0  0  0  0  0  0  0  0  0
    2.5824    2.8986   -0.9016 H   0  0  0  0  0  0  0  0  0  0  0  0
    0.9346    2.2181   -0.8704 H   0  0  0  0  0  0  0  0  0  0  0  0
    1.4780    5.9754   -4.7635 H   0  0  0  0  0  0  0  0  0  0  0  0
    0.9216    8.2118   -3.8939 H   0  0  0  0  0  0  0  0  0  0  0  0
    0.0729    8.4848   -1.5764 H   0  0  0  0  0  0  0  0  0  0  0  0
   -0.2762    6.4859   -0.1484 H   0  0  0  0  0  0  0  0  0  0  0  0
    0.2189    4.2614   -1.0006 H   0  0  0  0  0  0  0  0  0  0  0  0
    1.9387    1.7708   -5.9224 H   0  0  0  0  0  0  0  0  0  0  0  0
  1  2  2  0  0  0  0
  2  3  1  0  0  0  0
  2 18  1  0  0  0  0
  3  4  1  0  0  0  0
  3 31  1  0  0  0  0
  3 32  1  0  0  0  0
  4  5  2  0  0  0  0
  4 17  1  0  0  0  0
  5  6  1  0  0  0  0
  5 33  1  0  0  0  0
  6  7  2  0  0  0  0
  6 34  1  0  0  0  0
  7  8  1  0  0  0  0
  7 35  1  0  0  0  0
  8  9  1  0  0  0  0
  8 17  2  0  0  0  0
  9 10  1  0  0  0  0
 10 11  1  0  0  0  0
 10 36  1  0  0  0  0
 10 37  1  0  0  0  0
 11 12  2  0  0  0  0
 11 16  1  0  0  0  0
 12 13  1  0  0  0  0
 12 38  1  0  0  0  0
 13 14  2  0  0  0  0
 13 39  1  0  0  0  0
 14 15  1  0  0  0  0
 14 40  1  0  0  0  0
 15 16  2  0  0  0  0
 16 41  1  0  0  0  0
 17 42  1  0  0  0  0
 18 19  1  0  0  0  0
 18 43  1  0  0  0  0
 19 20  1  0  0  0  0
 19 44  1  0  0  0  0
 19 45  1  0  0  0  0
 20 21  2  0  0  0  0
 20 30  1  0  0  0  0
 21 22  1  0  0  0  0
 21 28  1  0  0  0  0
 22 23  2  0  0  0  0
 22 27  1  0  0  0  0
 23 24  1  0  0  0  0
 23 46  1  0  0  0  0
 24 25  2  0  0  0  0
 24 47  1  0  0  0  0
 25 26  1  0  0  0  0
 25 48  1  0  0  0  0
 26 27  2  0  0  0  0
 26 49  1  0  0  0  0
 27 50  1  0  0  0  0
 28 29  1  0  0  0  0
 29 30  2  0  0  0  0
 29 51  1  0  0  0  0
M  END
$$$$
