
 OpenBabel01122422353D

 43 46  0  0  0  0  0  0  0  0999 V2000
    1.6892    0.1950    1.9590 N   0  0  0  0  0  0  0  0  0  0  0  0
    2.6767    0.1285    1.3502 C   0  0  0  0  0  0  0  0  0  0  0  0
    3.9031    0.1097    0.6109 C   0  0  0  0  0  0  0  0  0  0  0  0
    4.6464    1.2955    0.4894 C   0  0  0  0  0  0  0  0  0  0  0  0
    5.8493    1.3442   -0.2404 C   0  0  0  0  0  0  0  0  0  0  0  0
    6.5669    2.6244   -0.4621 C   0  0  0  0  0  0  0  0  0  0  0  0
    6.5330    3.6780    0.4751 C   0  0  0  0  0  0  0  0  0  0  0  0
    7.1103    4.9337    0.2069 C   0  0  0  0  0  0  0  0  0  0  0  0
    6.9453    6.0473    1.1506 C   0  0  0  0  0  0  0  0  0  0  0  0
    5.7940    6.1754    1.8342 N   0  0  0  0  0  0  0  0  0  0  0  0
    5.8872    7.3574    2.4865 N   0  0  0  0  0  0  0  0  0  0  0  0
    4.8151    7.9033    3.2554 C   0  0  0  0  0  0  0  0  0  0  0  0
    3.6391    7.1704    3.4030 C   0  0  0  0  0  0  0  0  0  0  0  0
    2.5896    7.7324    4.1248 C   0  0  0  0  0  0  0  0  0  0  0  0
    2.7391    9.0007    4.6740 C   0  0  0  0  0  0  0  0  0  0  0  0
    3.9417    9.6599    4.4866 C   0  0  0  0  0  0  0  0  0  0  0  0
    4.9838    9.1446    3.7949 N   0  0  0  0  0  0  0  0  0  0  0  0
    7.1101    7.9549    2.2775 C   0  0  0  0  0  0  0  0  0  0  0  0
    7.8309    7.1339    1.4319 C   0  0  0  0  0  0  0  0  0  0  0  0
    9.1888    7.3497    0.9652 C   0  0  0  0  0  0  0  0  0  0  0  0
    9.9557    6.4534    0.6504 O   0  0  0  0  0  0  0  0  0  0  0  0
    9.5556    8.6551    0.8735 O   0  0  0  0  0  0  0  0  0  0  0  0
    7.7612    5.1264   -1.0164 C   0  0  0  0  0  0  0  0  0  0  0  0
    7.8526    4.0905   -1.9393 C   0  0  0  0  0  0  0  0  0  0  0  0
    7.2529    2.8618   -1.6678 C   0  0  0  0  0  0  0  0  0  0  0  0
    6.2983    0.1376   -0.8122 C   0  0  0  0  0  0  0  0  0  0  0  0
    5.5593   -1.0462   -0.7131 C   0  0  0  0  0  0  0  0  0  0  0  0
    4.3593   -1.0523   -0.0115 C   0  0  0  0  0  0  0  0  0  0  0  0
    3.6173   -2.1970    0.0604 O   0  0  0  0  0  0  0  0  0  0  0  0
    4.2497    2.2018    0.9465 H   0  0  0  0  0  0  0  0  0  0  0  0
    6.0316    3.5388    1.4318 H   0  0  0  0  0  0  0  0  0  0  0  0
    3.5274    6.1804    2.9676 H   0  0  0  0  0  0  0  0  0  0  0  0
    1.6596    7.1842    4.2541 H   0  0  0  0  0  0  0  0  0  0  0  0
    1.9341    9.4654    5.2344 H   0  0  0  0  0  0  0  0  0  0  0  0
    4.1028   10.6528    4.8981 H   0  0  0  0  0  0  0  0  0  0  0  0
    7.3464    8.8870    2.7717 H   0  0  0  0  0  0  0  0  0  0  0  0
    8.8269    9.2701    1.0726 H   0  0  0  0  0  0  0  0  0  0  0  0
    8.1950    6.0860   -1.2820 H   0  0  0  0  0  0  0  0  0  0  0  0
    8.3677    4.2489   -2.8831 H   0  0  0  0  0  0  0  0  0  0  0  0
    7.3016    2.0990   -2.4416 H   0  0  0  0  0  0  0  0  0  0  0  0
    7.2370    0.1054   -1.3631 H   0  0  0  0  0  0  0  0  0  0  0  0
    5.9354   -1.9427   -1.1971 H   0  0  0  0  0  0  0  0  0  0  0  0
    4.0222   -2.8821   -0.4975 H   0  0  0  0  0  0  0  0  0  0  0  0
  1  2  3  0  0  0  0
  2  3  1  0  0  0  0
  3  4  2  0  0  0  0
  3 28  1  0  0  0  0
  4  5  1  0  0  0  0
  4 30  1  0  0  0  0
  5  6  1  0  0  0  0
  5 26  2  0  0  0  0
  6  7  2  0  0  0  0
  6 25  1  0  0  0  0
  7  8  1  0  0  0  0
  7 31  1  0  0  0  0
  8  9  1  0  0  0  0
  8 23  2  0  0  0  0
  9 10  2  0  0  0  0
  9 19  1  0  0  0  0
 10 11  1  0  0  0  0
 11 12  1  0  0  0  0
 11 18  1  0  0  0  0
 12 13  2  0  0  0  0
 12 17  1  0  0  0  0
 13 14  1  0  0  0  0
 13 32  1  0  0  0  0
 14 15  2  0  0  0  0
 14 33  1  0  0  0  0
 15 16  1  0  0  0  0
 15 34  1  0  0  0  0
 16 17  2  0  0  0  0
 16 35  1  0  0  0  0
 18 19  2  0  0  0  0
 18 36  1  0  0  0  0
 19 20  1  0  0  0  0
 20 21  2  0  0  0  0
 20 22  1  0  0  0  0
 22 37  1  0  0  0  0
 23 24  1  0  0  0  0
 23 38  1  0  0  0  0
 24 25  2  0  0  0  0
 24 39  1  0  0  0  0
 25 40  1  0  0  0  0
 26 27  1  0  0  0  0
 26 41  1  0  0  0  0
 27 28  2  0  0  0  0
 27 42  1  0  0  0  0
 28 29  1  0  0  0  0
 29 43  1  0  0  0  0
M  END
$$$$
