
 OpenBabel01122422373D

 48 51  0  0  1  0  0  0  0  0999 V2000
    1.0934    0.4737   -0.4348 N   0  0  0  0  0  0  0  0  0  0  0  0
    2.3292    0.2945   -0.2599 C   0  0  0  0  0  0  0  0  0  0  0  0
    3.8189    0.0785   -0.0489 C   0  0  3  0  0  0  0  0  0  0  0  0
    4.1276   -0.3051    1.4128 C   0  0  0  0  0  0  0  0  0  0  0  0
    5.2163   -1.1356    1.7428 C   0  0  0  0  0  0  0  0  0  0  0  0
    5.4923   -1.4759    3.0704 C   0  0  0  0  0  0  0  0  0  0  0  0
    4.7038   -0.9732    4.1000 C   0  0  0  0  0  0  0  0  0  0  0  0
    3.6376   -0.1309    3.8034 C   0  0  0  0  0  0  0  0  0  0  0  0
    3.3561    0.2063    2.4761 C   0  0  0  0  0  0  0  0  0  0  0  0
    4.2770   -0.9617   -1.0663 C   0  0  0  0  0  0  0  0  0  0  0  0
    5.2366   -0.6175   -2.0197 C   0  0  0  0  0  0  0  0  0  0  0  0
    5.6646   -1.5556   -2.9593 C   0  0  0  0  0  0  0  0  0  0  0  0
    5.1526   -2.8541   -2.9714 C   0  0  0  0  0  0  0  0  0  0  0  0
    5.5480   -3.8360   -3.9036 N   0  0  0  0  0  0  0  0  0  0  0  0
    6.4423   -3.6674   -4.9502 C   0  0  0  0  0  0  0  0  0  0  0  0
    7.0607   -2.6430   -5.2250 O   0  0  0  0  0  0  0  0  0  0  0  0
    6.6339   -4.9192   -5.7867 C   0  0  0  0  0  0  0  0  0  0  0  0
    7.8041   -5.7574   -5.3355 C   0  0  0  0  0  0  0  0  0  0  0  0
    7.6271   -7.1085   -5.0213 C   0  0  0  0  0  0  0  0  0  0  0  0
    8.7223   -7.9017   -4.6703 C   0  0  0  0  0  0  0  0  0  0  0  0
   10.0127   -7.3598   -4.6111 C   0  0  0  0  0  0  0  0  0  0  0  0
   11.1326   -8.2174   -4.2517 C   0  0  0  0  0  0  0  0  0  0  0  0
   11.2552   -9.5162   -4.4527 N   0  0  0  0  0  0  0  0  0  0  0  0
   12.4711   -9.8801   -3.9266 N   0  0  0  0  0  0  0  0  0  0  0  0
   13.0853   -8.8379   -3.3872 N   0  0  0  0  0  0  0  0  0  0  0  0
   12.2541   -7.8075   -3.5841 N   0  0  0  0  0  0  0  0  0  0  0  0
   10.1887   -6.0052   -4.9181 C   0  0  0  0  0  0  0  0  0  0  0  0
    9.0954   -5.2137   -5.2817 C   0  0  0  0  0  0  0  0  0  0  0  0
    4.1934   -3.2074   -2.0176 C   0  0  0  0  0  0  0  0  0  0  0  0
    3.7550   -2.2696   -1.0773 C   0  0  0  0  0  0  0  0  0  0  0  0
    4.3279    1.0331   -0.2373 H   0  0  0  0  0  0  0  0  0  0  0  0
    5.8632   -1.5479    0.9703 H   0  0  0  0  0  0  0  0  0  0  0  0
    6.3259   -2.1355    3.2986 H   0  0  0  0  0  0  0  0  0  0  0  0
    4.9223   -1.2337    5.1323 H   0  0  0  0  0  0  0  0  0  0  0  0
    3.0200    0.2656    4.6061 H   0  0  0  0  0  0  0  0  0  0  0  0
    2.5114    0.8702    2.2955 H   0  0  0  0  0  0  0  0  0  0  0  0
    5.6651    0.3821   -2.0506 H   0  0  0  0  0  0  0  0  0  0  0  0
    6.4108   -1.2279   -3.6744 H   0  0  0  0  0  0  0  0  0  0  0  0
    5.1321   -4.7524   -3.7913 H   0  0  0  0  0  0  0  0  0  0  0  0
    6.7951   -4.6090   -6.8266 H   0  0  0  0  0  0  0  0  0  0  0  0
    5.7065   -5.5042   -5.7875 H   0  0  0  0  0  0  0  0  0  0  0  0
    6.6405   -7.5647   -5.0623 H   0  0  0  0  0  0  0  0  0  0  0  0
    8.5637   -8.9562   -4.4479 H   0  0  0  0  0  0  0  0  0  0  0  0
   12.4931   -6.8939   -3.2236 H   0  0  0  0  0  0  0  0  0  0  0  0
   11.1749   -5.5475   -4.9178 H   0  0  0  0  0  0  0  0  0  0  0  0
    9.2628   -4.1667   -5.5365 H   0  0  0  0  0  0  0  0  0  0  0  0
    3.7655   -4.2066   -1.9926 H   0  0  0  0  0  0  0  0  0  0  0  0
    3.0003   -2.5698   -0.3496 H   0  0  0  0  0  0  0  0  0  0  0  0
  1  2  3  0  0  0  0
  2  3  1  0  0  0  0
  3  4  1  0  0  0  0
  3 10  1  0  0  0  0
  3 31  1  0  0  0  0
  4  5  2  0  0  0  0
  4  9  1  0  0  0  0
  5  6  1  0  0  0  0
  5 32  1  0  0  0  0
  6  7  2  0  0  0  0
  6 33  1  0  0  0  0
  7  8  1  0  0  0  0
  7 34  1  0  0  0  0
  8  9  2  0  0  0  0
  8 35  1  0  0  0  0
  9 36  1  0  0  0  0
 10 11  2  0  0  0  0
 10 30  1  0  0  0  0
 11 12  1  0  0  0  0
 11 37  1  0  0  0  0
 12 13  2  0  0  0  0
 12 38  1  0  0  0  0
 13 14  1  0  0  0  0
 13 29  1  0  0  0  0
 14 15  1  0  0  0  0
 14 39  1  0  0  0  0
 15 16  2  0  0  0  0
 15 17  1  0  0  0  0
 17 18  1  0  0  0  0
 17 40  1  0  0  0  0
 17 41  1  0  0  0  0
 18 19  2  0  0  0  0
 18 28  1  0  0  0  0
 19 20  1  0  0  0  0
 19 42  1  0  0  0  0
 20 21  2  0  0  0  0
 20 43  1  0  0  0  0
 21 22  1  0  0  0  0
 21 27  1  0  0  0  0
 22 23  2  0  0  0  0
 22 26  1  0  0  0  0
 23 24  1  0  0  0  0
 24 25  2  0  0  0  0
 25 26  1  0  0  0  0
 26 44  1  0  0  0  0
 27 28  2  0  0  0  0
 27 45  1  0  0  0  0
 28 46  1  0  0  0  0
 29 30  2  0  0  0  0
 29 47  1  0  0  0  0
 30 48  1  0  0  0  0
M  END
$$$$
