
 OpenBabel01122422373D

 46 49  0  0  0  0  0  0  0  0999 V2000
    2.0660    1.0142    0.6613 N   0  0  0  0  0  0  0  0  0  0  0  0
    3.3123    0.4633    0.5585 C   0  0  0  0  0  0  0  0  0  0  0  0
    3.9845    0.2263    1.5495 O   0  0  0  0  0  0  0  0  0  0  0  0
    3.8021    0.1407   -0.8141 C   0  0  0  0  0  0  0  0  0  0  0  0
    3.3353    0.8384   -1.9356 C   0  0  0  0  0  0  0  0  0  0  0  0
    3.7531    0.4575   -3.2095 C   0  0  0  0  0  0  0  0  0  0  0  0
    4.6483   -0.6001   -3.3615 C   0  0  0  0  0  0  0  0  0  0  0  0
    5.1948   -1.2271   -2.2347 C   0  0  0  0  0  0  0  0  0  0  0  0
    6.1404   -2.2281   -2.2905 O   0  0  0  0  0  0  0  0  0  0  0  0
    7.0235   -2.2382   -3.3406 C   0  0  0  0  0  0  0  0  0  0  0  0
    7.6406   -1.0987   -3.8501 C   0  0  0  0  0  0  0  0  0  0  0  0
    8.4812   -1.2155   -4.9519 C   0  0  0  0  0  0  0  0  0  0  0  0
    8.6991   -2.4743   -5.4947 C   0  0  0  0  0  0  0  0  0  0  0  0
    9.4752   -2.6510   -6.6339 N   0  0  0  0  0  0  0  0  0  0  0  0
   10.6547   -1.9795   -6.8873 C   0  0  0  0  0  0  0  0  0  0  0  0
   11.1619   -1.1351   -6.1521 O   0  0  0  0  0  0  0  0  0  0  0  0
   11.3333   -2.4079   -8.1825 C   0  0  0  0  0  0  0  0  0  0  0  0
   11.9653   -3.7628   -8.0468 C   0  0  0  0  0  0  0  0  0  0  0  0
   13.3367   -3.9382   -7.7968 C   0  0  0  0  0  0  0  0  0  0  0  0
   13.8725   -5.2017   -7.5213 C   0  0  0  0  0  0  0  0  0  0  0  0
   13.0546   -6.3406   -7.4579 C   0  0  0  0  0  0  0  0  0  0  0  0
   11.6807   -6.1947   -7.7100 C   0  0  0  0  0  0  0  0  0  0  0  0
   11.2002   -4.9332   -8.0226 C   0  0  0  0  0  0  0  0  0  0  0  0
    9.8530   -4.9798   -8.2355 O   0  0  0  0  0  0  0  0  0  0  0  0
    9.4604   -6.2596   -8.0198 C   0  0  0  0  0  0  0  0  0  0  0  0
   10.5398   -7.0425   -7.6828 C   0  0  0  0  0  0  0  0  0  0  0  0
    8.1266   -3.5973   -5.0086 N   0  0  0  0  0  0  0  0  0  0  0  0
    7.3461   -3.4603   -3.9109 C   0  0  0  0  0  0  0  0  0  0  0  0
    4.7502   -0.8743   -0.9605 C   0  0  0  0  0  0  0  0  0  0  0  0
    1.7002    1.1085    1.5998 H   0  0  0  0  0  0  0  0  0  0  0  0
    1.3930    0.9892   -0.0977 H   0  0  0  0  0  0  0  0  0  0  0  0
    2.6591    1.6834   -1.8335 H   0  0  0  0  0  0  0  0  0  0  0  0
    3.3866    0.9847   -4.0865 H   0  0  0  0  0  0  0  0  0  0  0  0
    4.9310   -0.9005   -4.3670 H   0  0  0  0  0  0  0  0  0  0  0  0
    7.4491   -0.1150   -3.4292 H   0  0  0  0  0  0  0  0  0  0  0  0
    8.9132   -0.3276   -5.4011 H   0  0  0  0  0  0  0  0  0  0  0  0
    9.3578   -3.5684   -7.0502 H   0  0  0  0  0  0  0  0  0  0  0  0
   12.0728   -1.6503   -8.4579 H   0  0  0  0  0  0  0  0  0  0  0  0
   10.5843   -2.4176   -8.9864 H   0  0  0  0  0  0  0  0  0  0  0  0
   13.9995   -3.0735   -7.7832 H   0  0  0  0  0  0  0  0  0  0  0  0
   14.9368   -5.2989   -7.3170 H   0  0  0  0  0  0  0  0  0  0  0  0
   13.4749   -7.3062   -7.1944 H   0  0  0  0  0  0  0  0  0  0  0  0
    8.3992   -6.4422   -8.1220 H   0  0  0  0  0  0  0  0  0  0  0  0
   10.5034   -8.0904   -7.4234 H   0  0  0  0  0  0  0  0  0  0  0  0
    6.9629   -4.3874   -3.4955 H   0  0  0  0  0  0  0  0  0  0  0  0
    5.1374   -1.3908   -0.0852 H   0  0  0  0  0  0  0  0  0  0  0  0
  1  2  1  0  0  0  0
  1 30  1  0  0  0  0
  1 31  1  0  0  0  0
  2  3  2  0  0  0  0
  2  4  1  0  0  0  0
  4  5  2  0  0  0  0
  4 29  1  0  0  0  0
  5  6  1  0  0  0  0
  5 32  1  0  0  0  0
  6  7  2  0  0  0  0
  6 33  1  0  0  0  0
  7  8  1  0  0  0  0
  7 34  1  0  0  0  0
  8  9  1  0  0  0  0
  8 29  2  0  0  0  0
  9 10  1  0  0  0  0
 10 11  2  0  0  0  0
 10 28  1  0  0  0  0
 11 12  1  0  0  0  0
 11 35  1  0  0  0  0
 12 13  2  0  0  0  0
 12 36  1  0  0  0  0
 13 14  1  0  0  0  0
 13 27  1  0  0  0  0
 14 15  1  0  0  0  0
 14 37  1  0  0  0  0
 15 16  2  0  0  0  0
 15 17  1  0  0  0  0
 17 18  1  0  0  0  0
 17 38  1  0  0  0  0
 17 39  1  0  0  0  0
 18 19  2  0  0  0  0
 18 23  1  0  0  0  0
 19 20  1  0  0  0  0
 19 40  1  0  0  0  0
 20 21  2  0  0  0  0
 20 41  1  0  0  0  0
 21 22  1  0  0  0  0
 21 42  1  0  0  0  0
 22 23  2  0  0  0  0
 22 26  1  0  0  0  0
 23 24  1  0  0  0  0
 24 25  1  0  0  0  0
 25 26  2  0  0  0  0
 25 43  1  0  0  0  0
 26 44  1  0  0  0  0
 27 28  2  0  0  0  0
 28 45  1  0  0  0  0
 29 46  1  0  0  0  0
M  END
$$$$
