
 OpenBabel01122422373D

 48 51  0  0  0  0  0  0  0  0999 V2000
    2.6273   -1.4816    0.3442 O   0  0  0  0  0  0  0  0  0  0  0  0
    2.2503   -0.4123   -0.1255 C   0  0  0  0  0  0  0  0  0  0  0  0
    1.1633    0.2673    0.3639 N   0  0  0  0  0  0  0  0  0  0  0  0
    0.3589   -0.2272    1.4640 C   0  0  0  0  0  0  0  0  0  0  0  0
    1.1327   -0.2878    2.7852 C   0  0  0  0  0  0  0  0  0  0  0  0
    0.2923   -0.8349    3.9133 C   0  0  0  0  0  0  0  0  0  0  0  0
   -0.4301    0.0360    4.7434 C   0  0  0  0  0  0  0  0  0  0  0  0
   -1.2076   -0.4436    5.8039 C   0  0  0  0  0  0  0  0  0  0  0  0
   -1.2262   -1.8245    5.9880 C   0  0  0  0  0  0  0  0  0  0  0  0
   -1.9096   -2.4824    6.9650 O   0  0  0  0  0  0  0  0  0  0  0  0
   -1.6598   -3.8075    6.7975 C   0  0  0  0  0  0  0  0  0  0  0  0
   -0.8284   -4.0119    5.7198 C   0  0  0  0  0  0  0  0  0  0  0  0
   -0.5379   -2.7279    5.1883 C   0  0  0  0  0  0  0  0  0  0  0  0
    0.2348   -2.2287    4.1243 C   0  0  0  0  0  0  0  0  0  0  0  0
    2.9679    0.2420   -1.2586 C   0  0  0  0  0  0  0  0  0  0  0  0
    4.0687   -0.3770   -1.7319 C   0  0  0  0  0  0  0  0  0  0  0  0
    4.8614    0.2012   -2.7829 C   0  0  0  0  0  0  0  0  0  0  0  0
    4.5696    1.4253   -3.2394 C   0  0  0  0  0  0  0  0  0  0  0  0
    3.4684    2.1210   -2.7720 N   0  0  0  0  0  0  0  0  0  0  0  0
    3.2549    3.5030   -3.2090 C   0  0  0  0  0  0  0  0  0  0  0  0
    4.0323    4.4808   -2.3498 C   0  0  0  0  0  0  0  0  0  0  0  0
    5.3353    4.8617   -2.7013 C   0  0  0  0  0  0  0  0  0  0  0  0
    6.0773    5.6778   -1.8518 C   0  0  0  0  0  0  0  0  0  0  0  0
    7.3294    6.0124   -2.1906 F   0  0  0  0  0  0  0  0  0  0  0  0
    5.5470    6.1383   -0.6534 C   0  0  0  0  0  0  0  0  0  0  0  0
    4.2436    5.7911   -0.3047 C   0  0  0  0  0  0  0  0  0  0  0  0
    3.4911    4.9655   -1.1470 C   0  0  0  0  0  0  0  0  0  0  0  0
    2.5767    1.5631   -1.8505 C   0  0  0  0  0  0  0  0  0  0  0  0
    1.5284    2.1131   -1.5057 O   0  0  0  0  0  0  0  0  0  0  0  0
    0.8519    1.1051   -0.1342 H   0  0  0  0  0  0  0  0  0  0  0  0
   -0.0216   -1.2168    1.1848 H   0  0  0  0  0  0  0  0  0  0  0  0
   -0.4997    0.4464    1.5584 H   0  0  0  0  0  0  0  0  0  0  0  0
    1.5044    0.7112    3.0469 H   0  0  0  0  0  0  0  0  0  0  0  0
    2.0302   -0.9104    2.6895 H   0  0  0  0  0  0  0  0  0  0  0  0
   -0.3845    1.1109    4.5756 H   0  0  0  0  0  0  0  0  0  0  0  0
   -1.7627    0.2179    6.4561 H   0  0  0  0  0  0  0  0  0  0  0  0
   -2.1356   -4.4647    7.5115 H   0  0  0  0  0  0  0  0  0  0  0  0
   -0.4714   -4.9684    5.3655 H   0  0  0  0  0  0  0  0  0  0  0  0
    0.7901   -2.9101    3.4830 H   0  0  0  0  0  0  0  0  0  0  0  0
    4.4152   -1.3164   -1.3079 H   0  0  0  0  0  0  0  0  0  0  0  0
    5.7133   -0.3556   -3.1560 H   0  0  0  0  0  0  0  0  0  0  0  0
    5.1852    1.9018   -3.9955 H   0  0  0  0  0  0  0  0  0  0  0  0
    2.1872    3.7511   -3.1675 H   0  0  0  0  0  0  0  0  0  0  0  0
    3.5486    3.6002   -4.2614 H   0  0  0  0  0  0  0  0  0  0  0  0
    5.7927    4.5185   -3.6240 H   0  0  0  0  0  0  0  0  0  0  0  0
    6.1519    6.7586    0.0003 H   0  0  0  0  0  0  0  0  0  0  0  0
    3.8169    6.1502    0.6286 H   0  0  0  0  0  0  0  0  0  0  0  0
    2.4802    4.6877   -0.8503 H   0  0  0  0  0  0  0  0  0  0  0  0
  1  2  2  0  0  0  0
  2  3  1  0  0  0  0
  2 15  1  0  0  0  0
  3  4  1  0  0  0  0
  3 30  1  0  0  0  0
  4  5  1  0  0  0  0
  4 31  1  0  0  0  0
  4 32  1  0  0  0  0
  5  6  1  0  0  0  0
  5 33  1  0  0  0  0
  5 34  1  0  0  0  0
  6  7  2  0  0  0  0
  6 14  1  0  0  0  0
  7  8  1  0  0  0  0
  7 35  1  0  0  0  0
  8  9  2  0  0  0  0
  8 36  1  0  0  0  0
  9 10  1  0  0  0  0
  9 13  1  0  0  0  0
 10 11  1  0  0  0  0
 11 12  2  0  0  0  0
 11 37  1  0  0  0  0
 12 13  1  0  0  0  0
 12 38  1  0  0  0  0
 13 14  2  0  0  0  0
 14 39  1  0  0  0  0
 15 16  2  0  0  0  0
 15 28  1  0  0  0  0
 16 17  1  0  0  0  0
 16 40  1  0  0  0  0
 17 18  2  0  0  0  0
 17 41  1  0  0  0  0
 18 19  1  0  0  0  0
 18 42  1  0  0  0  0
 19 20  1  0  0  0  0
 19 28  1  0  0  0  0
 20 21  1  0  0  0  0
 20 43  1  0  0  0  0
 20 44  1  0  0  0  0
 21 22  2  0  0  0  0
 21 27  1  0  0  0  0
 22 23  1  0  0  0  0
 22 45  1  0  0  0  0
 23 24  1  0  0  0  0
 23 25  2  0  0  0  0
 25 26  1  0  0  0  0
 25 46  1  0  0  0  0
 26 27  2  0  0  0  0
 26 47  1  0  0  0  0
 27 48  1  0  0  0  0
 28 29  2  0  0  0  0
M  END
$$$$
