
 OpenBabel01122422373D

 57 60  0  0  1  0  0  0  0  0999 V2000
    2.1542    0.1653    0.7230 C   0  0  0  0  0  0  0  0  0  0  0  0
    3.5641    0.3896    0.6787 O   0  0  0  0  0  0  0  0  0  0  0  0
    4.0313    0.7081   -0.5608 C   0  0  0  0  0  0  0  0  0  0  0  0
    3.3498    0.7279   -1.5798 O   0  0  0  0  0  0  0  0  0  0  0  0
    5.5334    0.9658   -0.5119 C   0  0  0  0  0  0  0  0  0  0  0  0
    5.8653    1.8877   -1.5869 N   0  0  0  0  0  0  0  0  0  0  0  0
    6.1930    1.3958   -2.8251 C   0  0  0  0  0  0  0  0  0  0  0  0
    6.3280    2.1122   -3.8860 N   0  0  0  0  0  0  0  0  0  0  0  0
    6.0528    3.4800   -3.7772 C   0  0  0  0  0  0  0  0  0  0  0  0
    6.0211    4.2372   -4.9382 C   0  0  0  0  0  0  0  0  0  0  0  0
    5.7139    5.5961   -4.8836 C   0  0  0  0  0  0  0  0  0  0  0  0
    5.4738    6.2433   -3.6650 C   0  0  0  0  0  0  0  0  0  0  0  0
    5.2187    7.6342   -3.5809 N   0  0  0  0  0  0  0  0  0  0  0  0
    5.4517    8.5298   -4.5984 C   0  0  0  0  0  0  0  0  0  0  0  0
    5.9376    8.2613   -5.6947 O   0  0  0  0  0  0  0  0  0  0  0  0
    5.0828    9.8177   -4.2978 N   0  0  0  0  0  0  0  0  0  0  0  0
    5.1949   10.8412   -5.3371 C   0  0  3  0  0  0  0  0  0  0  0  0
    3.9382   10.8551   -6.2092 C   0  0  0  0  0  0  0  0  0  0  0  0
    5.5065   12.2335   -4.7619 C   0  0  0  0  0  0  0  0  0  0  0  0
    6.8026   12.2821   -3.9792 C   0  0  0  0  0  0  0  0  0  0  0  0
    8.0052   11.8615   -4.5609 C   0  0  0  0  0  0  0  0  0  0  0  0
    9.1956   11.8830   -3.8338 C   0  0  0  0  0  0  0  0  0  0  0  0
    9.2231   12.3752   -2.5238 C   0  0  0  0  0  0  0  0  0  0  0  0
   10.4228   12.4343   -1.7984 C   0  0  0  0  0  0  0  0  0  0  0  0
   10.4535   12.9907   -0.5202 C   0  0  0  0  0  0  0  0  0  0  0  0
    9.2814   13.4715    0.0559 C   0  0  0  0  0  0  0  0  0  0  0  0
    8.0728   13.3826   -0.6387 C   0  0  0  0  0  0  0  0  0  0  0  0
    8.0267   12.8420   -1.9345 C   0  0  0  0  0  0  0  0  0  0  0  0
    6.8255   12.7718   -2.6649 C   0  0  0  0  0  0  0  0  0  0  0  0
    5.4788    5.4821   -2.4939 C   0  0  0  0  0  0  0  0  0  0  0  0
    5.7606    4.1065   -2.5643 C   0  0  0  0  0  0  0  0  0  0  0  0
    5.6836    3.2470   -1.3680 C   0  0  0  0  0  0  0  0  0  0  0  0
    5.4305    3.7334   -0.2693 O   0  0  0  0  0  0  0  0  0  0  0  0
    1.8810   -0.0767    1.7536 H   0  0  0  0  0  0  0  0  0  0  0  0
    1.8796   -0.6808    0.0839 H   0  0  0  0  0  0  0  0  0  0  0  0
    1.6130    1.0686    0.4238 H   0  0  0  0  0  0  0  0  0  0  0  0
    6.0478    0.0096   -0.6529 H   0  0  0  0  0  0  0  0  0  0  0  0
    5.8055    1.4009    0.4508 H   0  0  0  0  0  0  0  0  0  0  0  0
    6.3552    0.3072   -2.8688 H   0  0  0  0  0  0  0  0  0  0  0  0
    6.2152    3.7684   -5.8989 H   0  0  0  0  0  0  0  0  0  0  0  0
    5.6569    6.1182   -5.8332 H   0  0  0  0  0  0  0  0  0  0  0  0
    5.0030    8.0155   -2.6732 H   0  0  0  0  0  0  0  0  0  0  0  0
    4.6395   10.0372   -3.4197 H   0  0  0  0  0  0  0  0  0  0  0  0
    6.0206   10.5539   -5.9989 H   0  0  0  0  0  0  0  0  0  0  0  0
    3.0908   11.3112   -5.6886 H   0  0  0  0  0  0  0  0  0  0  0  0
    3.6431    9.8391   -6.4965 H   0  0  0  0  0  0  0  0  0  0  0  0
    4.1201   11.4183   -7.1310 H   0  0  0  0  0  0  0  0  0  0  0  0
    4.6740   12.5620   -4.1272 H   0  0  0  0  0  0  0  0  0  0  0  0
    5.5818   12.9611   -5.5807 H   0  0  0  0  0  0  0  0  0  0  0  0
    8.0323   11.5036   -5.5880 H   0  0  0  0  0  0  0  0  0  0  0  0
   10.1066   11.5275   -4.3099 H   0  0  0  0  0  0  0  0  0  0  0  0
   11.3471   12.0618   -2.2344 H   0  0  0  0  0  0  0  0  0  0  0  0
   11.3948   13.0573    0.0188 H   0  0  0  0  0  0  0  0  0  0  0  0
    9.3081   13.9214    1.0448 H   0  0  0  0  0  0  0  0  0  0  0  0
    7.1682   13.7597   -0.1677 H   0  0  0  0  0  0  0  0  0  0  0  0
    5.9010   13.1153   -2.2054 H   0  0  0  0  0  0  0  0  0  0  0  0
    5.2672    5.9344   -1.5284 H   0  0  0  0  0  0  0  0  0  0  0  0
  1  2  1  0  0  0  0
  1 34  1  0  0  0  0
  1 35  1  0  0  0  0
  1 36  1  0  0  0  0
  2  3  1  0  0  0  0
  3  4  2  0  0  0  0
  3  5  1  0  0  0  0
  5  6  1  0  0  0  0
  5 37  1  0  0  0  0
  5 38  1  0  0  0  0
  6  7  1  0  0  0  0
  6 32  1  0  0  0  0
  7  8  2  0  0  0  0
  7 39  1  0  0  0  0
  8  9  1  0  0  0  0
  9 10  2  0  0  0  0
  9 31  1  0  0  0  0
 10 11  1  0  0  0  0
 10 40  1  0  0  0  0
 11 12  2  0  0  0  0
 11 41  1  0  0  0  0
 12 13  1  0  0  0  0
 12 30  1  0  0  0  0
 13 14  1  0  0  0  0
 13 42  1  0  0  0  0
 14 15  2  0  0  0  0
 14 16  1  0  0  0  0
 16 17  1  0  0  0  0
 16 43  1  0  0  0  0
 17 18  1  0  0  0  0
 17 19  1  0  0  0  0
 17 44  1  0  0  0  0
 18 45  1  0  0  0  0
 18 46  1  0  0  0  0
 18 47  1  0  0  0  0
 19 20  1  0  0  0  0
 19 48  1  0  0  0  0
 19 49  1  0  0  0  0
 20 21  2  0  0  0  0
 20 29  1  0  0  0  0
 21 22  1  0  0  0  0
 21 50  1  0  0  0  0
 22 23  2  0  0  0  0
 22 51  1  0  0  0  0
 23 24  1  0  0  0  0
 23 28  1  0  0  0  0
 24 25  2  0  0  0  0
 24 52  1  0  0  0  0
 25 26  1  0  0  0  0
 25 53  1  0  0  0  0
 26 27  2  0  0  0  0
 26 54  1  0  0  0  0
 27 28  1  0  0  0  0
 27 55  1  0  0  0  0
 28 29  2  0  0  0  0
 29 56  1  0  0  0  0
 30 31  2  0  0  0  0
 30 57  1  0  0  0  0
 31 32  1  0  0  0  0
 32 33  2  0  0  0  0
M  END
$$$$
