
 OpenBabel01122422383D

 48 51  0  0  0  0  0  0  0  0999 V2000
    0.9544   -0.3201    0.0384 O   0  0  0  0  0  0  0  0  0  0  0  0
    2.1423   -0.0253    0.1449 C   0  0  0  0  0  0  0  0  0  0  0  0
    2.7689    1.0377   -0.4754 N   0  0  0  0  0  0  0  0  0  0  0  0
    2.1794    1.9459   -1.3892 C   0  0  0  0  0  0  0  0  0  0  0  0
    0.8288    1.9285   -1.7573 C   0  0  0  0  0  0  0  0  0  0  0  0
    0.3206    2.8274   -2.7122 C   0  0  0  0  0  0  0  0  0  0  0  0
    1.1547    3.7522   -3.3433 C   0  0  0  0  0  0  0  0  0  0  0  0
    0.6963    4.6255   -4.3532 N   0  0  0  0  0  0  0  0  0  0  0  0
   -0.5667    5.0532   -4.6524 C   0  0  0  0  0  0  0  0  0  0  0  0
   -0.6890    5.4484   -5.9222 C   0  0  0  0  0  0  0  0  0  0  0  0
    0.6131    5.0997   -6.5354 C   0  0  0  0  0  0  0  0  0  0  0  0
    0.8410    5.1022   -7.7311 O   0  0  0  0  0  0  0  0  0  0  0  0
    1.4544    4.6897   -5.5156 N   0  0  0  0  0  0  0  0  0  0  0  0
    2.5018    3.7881   -2.9405 C   0  0  0  0  0  0  0  0  0  0  0  0
    3.0055    2.9055   -1.9744 C   0  0  0  0  0  0  0  0  0  0  0  0
    2.9898   -0.9212    0.9898 C   0  0  0  0  0  0  0  0  0  0  0  0
    2.5787   -2.2676    0.9940 C   0  0  0  0  0  0  0  0  0  0  0  0
    3.2486   -3.1740    1.7852 C   0  0  0  0  0  0  0  0  0  0  0  0
    4.2770   -2.8300    2.5743 N   0  0  0  0  0  0  0  0  0  0  0  0
    4.6687   -1.5306    2.5366 C   0  0  0  0  0  0  0  0  0  0  0  0
    4.1014   -0.5137    1.7550 C   0  0  0  0  0  0  0  0  0  0  0  0
    4.6239    0.7823    1.6902 N   0  0  0  0  0  0  0  0  0  0  0  0
    5.9667    1.1038    2.1843 C   0  0  0  0  0  0  0  0  0  0  0  0
    5.9904    1.9184    3.4585 C   0  0  0  0  0  0  0  0  0  0  0  0
    5.0702    1.7402    4.5010 C   0  0  0  0  0  0  0  0  0  0  0  0
    5.1762    2.4813    5.6804 C   0  0  0  0  0  0  0  0  0  0  0  0
    6.2134    3.4004    5.8472 C   0  0  0  0  0  0  0  0  0  0  0  0
    7.1506    3.5712    4.8335 C   0  0  0  0  0  0  0  0  0  0  0  0
    7.0437    2.8327    3.6533 C   0  0  0  0  0  0  0  0  0  0  0  0
    3.7669    1.1259   -0.3056 H   0  0  0  0  0  0  0  0  0  0  0  0
    0.1316    1.2134   -1.3334 H   0  0  0  0  0  0  0  0  0  0  0  0
   -0.7304    2.7527   -2.9829 H   0  0  0  0  0  0  0  0  0  0  0  0
   -1.3275    5.0802   -3.8826 H   0  0  0  0  0  0  0  0  0  0  0  0
   -1.5307    5.8476   -6.4554 H   0  0  0  0  0  0  0  0  0  0  0  0
    2.1431    3.9750   -5.7152 H   0  0  0  0  0  0  0  0  0  0  0  0
    3.1670    4.5324   -3.3712 H   0  0  0  0  0  0  0  0  0  0  0  0
    4.0535    2.9824   -1.6995 H   0  0  0  0  0  0  0  0  0  0  0  0
    1.7474   -2.6026    0.3795 H   0  0  0  0  0  0  0  0  0  0  0  0
    2.9628   -4.2216    1.8093 H   0  0  0  0  0  0  0  0  0  0  0  0
    5.4850   -1.3310    3.2254 H   0  0  0  0  0  0  0  0  0  0  0  0
    3.9365    1.5210    1.8414 H   0  0  0  0  0  0  0  0  0  0  0  0
    6.4403    1.6968    1.3920 H   0  0  0  0  0  0  0  0  0  0  0  0
    6.6066    0.2226    2.3060 H   0  0  0  0  0  0  0  0  0  0  0  0
    4.2629    1.0165    4.4143 H   0  0  0  0  0  0  0  0  0  0  0  0
    4.4535    2.3378    6.4813 H   0  0  0  0  0  0  0  0  0  0  0  0
    6.2951    3.9726    6.7669 H   0  0  0  0  0  0  0  0  0  0  0  0
    7.9703    4.2742    4.9634 H   0  0  0  0  0  0  0  0  0  0  0  0
    7.8015    2.9704    2.8838 H   0  0  0  0  0  0  0  0  0  0  0  0
  1  2  2  0  0  0  0
  2  3  1  0  0  0  0
  2 16  1  0  0  0  0
  3  4  1  0  0  0  0
  3 30  1  0  0  0  0
  4  5  2  0  0  0  0
  4 15  1  0  0  0  0
  5  6  1  0  0  0  0
  5 31  1  0  0  0  0
  6  7  2  0  0  0  0
  6 32  1  0  0  0  0
  7  8  1  0  0  0  0
  7 14  1  0  0  0  0
  8  9  1  0  0  0  0
  8 13  1  0  0  0  0
  9 10  2  0  0  0  0
  9 33  1  0  0  0  0
 10 11  1  0  0  0  0
 10 34  1  0  0  0  0
 11 12  2  0  0  0  0
 11 13  1  0  0  0  0
 13 35  1  0  0  0  0
 14 15  2  0  0  0  0
 14 36  1  0  0  0  0
 15 37  1  0  0  0  0
 16 17  2  0  0  0  0
 16 21  1  0  0  0  0
 17 18  1  0  0  0  0
 17 38  1  0  0  0  0
 18 19  2  0  0  0  0
 18 39  1  0  0  0  0
 19 20  1  0  0  0  0
 20 21  2  0  0  0  0
 20 40  1  0  0  0  0
 21 22  1  0  0  0  0
 22 23  1  0  0  0  0
 22 41  1  0  0  0  0
 23 24  1  0  0  0  0
 23 42  1  0  0  0  0
 23 43  1  0  0  0  0
 24 25  2  0  0  0  0
 24 29  1  0  0  0  0
 25 26  1  0  0  0  0
 25 44  1  0  0  0  0
 26 27  2  0  0  0  0
 26 45  1  0  0  0  0
 27 28  1  0  0  0  0
 27 46  1  0  0  0  0
 28 29  2  0  0  0  0
 28 47  1  0  0  0  0
 29 48  1  0  0  0  0
M  END
$$$$
