
 OpenBabel01122422383D

 46 49  0  0  0  0  0  0  0  0999 V2000
   -5.1637   -6.2419    0.1297 N   0  0  0  0  0  0  0  0  0  0  0  0
   -4.2122   -6.6541    0.6443 C   0  0  0  0  0  0  0  0  0  0  0  0
   -3.0295   -7.1694    1.2755 C   0  0  0  0  0  0  0  0  0  0  0  0
   -1.8486   -6.4114    1.2854 C   0  0  0  0  0  0  0  0  0  0  0  0
   -0.6683   -6.9330    1.8380 C   0  0  0  0  0  0  0  0  0  0  0  0
    0.5445   -6.2522    1.8528 O   0  0  0  0  0  0  0  0  0  0  0  0
    0.8917   -5.4865    0.7467 C   0  0  0  0  0  0  0  0  0  0  0  0
    0.5023   -5.8789   -0.5501 C   0  0  0  0  0  0  0  0  0  0  0  0
    0.7342   -5.0555   -1.6470 C   0  0  0  0  0  0  0  0  0  0  0  0
    1.4127   -3.8623   -1.4680 C   0  0  0  0  0  0  0  0  0  0  0  0
    1.8971   -3.5150   -0.2048 C   0  0  0  0  0  0  0  0  0  0  0  0
    1.6780   -4.3225    0.9184 C   0  0  0  0  0  0  0  0  0  0  0  0
    2.2592   -4.0077    2.1865 N   0  0  0  0  0  0  0  0  0  0  0  0
    3.0866   -2.9198    2.4637 C   0  0  0  0  0  0  0  0  0  0  0  0
    3.3598   -1.9975    1.6957 O   0  0  0  0  0  0  0  0  0  0  0  0
    3.7249   -2.9289    3.8465 C   0  0  0  0  0  0  0  0  0  0  0  0
    5.0670   -3.6241    3.8501 C   0  0  0  0  0  0  0  0  0  0  0  0
    6.1157   -3.1632    3.0404 C   0  0  0  0  0  0  0  0  0  0  0  0
    7.3306   -3.8526    2.9839 C   0  0  0  0  0  0  0  0  0  0  0  0
    7.5284   -5.0097    3.7477 C   0  0  0  0  0  0  0  0  0  0  0  0
    8.7616   -5.7817    3.6586 C   0  0  0  0  0  0  0  0  0  0  0  0
    9.2831   -6.5924    4.5604 N   0  0  0  0  0  0  0  0  0  0  0  0
   10.4320   -7.1065    4.0074 N   0  0  0  0  0  0  0  0  0  0  0  0
   10.6132   -6.6481    2.7781 N   0  0  0  0  0  0  0  0  0  0  0  0
    9.5740   -5.8346    2.5577 N   0  0  0  0  0  0  0  0  0  0  0  0
    6.5023   -5.4298    4.6049 C   0  0  0  0  0  0  0  0  0  0  0  0
    5.2832   -4.7459    4.6557 C   0  0  0  0  0  0  0  0  0  0  0  0
   -0.7019   -8.1937    2.4406 C   0  0  0  0  0  0  0  0  0  0  0  0
   -1.8875   -8.9413    2.4573 C   0  0  0  0  0  0  0  0  0  0  0  0
   -3.0473   -8.4351    1.8677 C   0  0  0  0  0  0  0  0  0  0  0  0
   -1.8516   -5.4233    0.8299 H   0  0  0  0  0  0  0  0  0  0  0  0
   -0.0234   -6.8146   -0.7182 H   0  0  0  0  0  0  0  0  0  0  0  0
    0.3687   -5.3350   -2.6309 H   0  0  0  0  0  0  0  0  0  0  0  0
    1.5897   -3.1977   -2.3095 H   0  0  0  0  0  0  0  0  0  0  0  0
    2.4549   -2.5874   -0.1512 H   0  0  0  0  0  0  0  0  0  0  0  0
    2.1179   -4.7007    2.9129 H   0  0  0  0  0  0  0  0  0  0  0  0
    3.0355   -3.3755    4.5701 H   0  0  0  0  0  0  0  0  0  0  0  0
    3.8655   -1.8856    4.1618 H   0  0  0  0  0  0  0  0  0  0  0  0
    5.9891   -2.2684    2.4304 H   0  0  0  0  0  0  0  0  0  0  0  0
    8.1127   -3.4600    2.3386 H   0  0  0  0  0  0  0  0  0  0  0  0
    9.4693   -5.3892    1.6561 H   0  0  0  0  0  0  0  0  0  0  0  0
    6.6393   -6.3120    5.2291 H   0  0  0  0  0  0  0  0  0  0  0  0
    4.5042   -5.1061    5.3237 H   0  0  0  0  0  0  0  0  0  0  0  0
    0.1963   -8.6108    2.8889 H   0  0  0  0  0  0  0  0  0  0  0  0
   -1.9050   -9.9245    2.9237 H   0  0  0  0  0  0  0  0  0  0  0  0
   -3.9604   -9.0316    1.8742 H   0  0  0  0  0  0  0  0  0  0  0  0
  1  2  3  0  0  0  0
  2  3  1  0  0  0  0
  3  4  2  0  0  0  0
  3 30  1  0  0  0  0
  4  5  1  0  0  0  0
  4 31  1  0  0  0  0
  5  6  1  0  0  0  0
  5 28  2  0  0  0  0
  6  7  1  0  0  0  0
  7  8  2  0  0  0  0
  7 12  1  0  0  0  0
  8  9  1  0  0  0  0
  8 32  1  0  0  0  0
  9 10  2  0  0  0  0
  9 33  1  0  0  0  0
 10 11  1  0  0  0  0
 10 34  1  0  0  0  0
 11 12  2  0  0  0  0
 11 35  1  0  0  0  0
 12 13  1  0  0  0  0
 13 14  1  0  0  0  0
 13 36  1  0  0  0  0
 14 15  2  0  0  0  0
 14 16  1  0  0  0  0
 16 17  1  0  0  0  0
 16 37  1  0  0  0  0
 16 38  1  0  0  0  0
 17 18  2  0  0  0  0
 17 27  1  0  0  0  0
 18 19  1  0  0  0  0
 18 39  1  0  0  0  0
 19 20  2  0  0  0  0
 19 40  1  0  0  0  0
 20 21  1  0  0  0  0
 20 26  1  0  0  0  0
 21 22  2  0  0  0  0
 21 25  1  0  0  0  0
 22 23  1  0  0  0  0
 23 24  2  0  0  0  0
 24 25  1  0  0  0  0
 25 41  1  0  0  0  0
 26 27  2  0  0  0  0
 26 42  1  0  0  0  0
 27 43  1  0  0  0  0
 28 29  1  0  0  0  0
 28 44  1  0  0  0  0
 29 30  2  0  0  0  0
 29 45  1  0  0  0  0
 30 46  1  0  0  0  0
M  END
$$$$
