
 OpenBabel01122422383D

 47 50  0  0  0  0  0  0  0  0999 V2000
   16.5365    0.6840    3.1690 N   0  0  0  0  0  0  0  0  0  0  0  0
   15.4296    0.5855    2.8462 C   0  0  0  0  0  0  0  0  0  0  0  0
   14.0562    0.4615    2.4485 C   0  0  0  0  0  0  0  0  0  0  0  0
   13.7327    0.1729    1.1160 C   0  0  0  0  0  0  0  0  0  0  0  0
   12.3968    0.0630    0.7151 C   0  0  0  0  0  0  0  0  0  0  0  0
   11.3796    0.2597    1.6533 C   0  0  0  0  0  0  0  0  0  0  0  0
   10.0165    0.2232    1.2763 N   0  0  0  0  0  0  0  0  0  0  0  0
    9.4320   -0.0606    0.0679 C   0  0  0  0  0  0  0  0  0  0  0  0
    8.1264    0.0877    0.1477 N   0  0  0  0  0  0  0  0  0  0  0  0
    7.9499    0.5199    1.4265 C   0  0  0  0  0  0  0  0  0  0  0  0
    6.7166    0.9028    1.8625 N   0  0  0  0  0  0  0  0  0  0  0  0
    6.4222    1.5567    3.0217 C   0  0  0  0  0  0  0  0  0  0  0  0
    5.2548    1.8320    3.2893 O   0  0  0  0  0  0  0  0  0  0  0  0
    7.4707    1.9352    3.8023 N   0  0  0  0  0  0  0  0  0  0  0  0
    7.3583    2.6987    5.0182 C   0  0  0  0  0  0  0  0  0  0  0  0
    7.8960    1.9193    6.1900 C   0  0  0  0  0  0  0  0  0  0  0  0
    7.0375    1.1050    6.9354 C   0  0  0  0  0  0  0  0  0  0  0  0
    7.5243    0.3670    8.0093 C   0  0  0  0  0  0  0  0  0  0  0  0
    8.8853    0.3998    8.3192 C   0  0  0  0  0  0  0  0  0  0  0  0
    9.7936    1.1555    7.5545 C   0  0  0  0  0  0  0  0  0  0  0  0
   11.2532    1.0730    7.7774 C   0  0  0  0  0  0  0  0  0  0  0  0
   11.8682   -0.1078    8.2009 C   0  0  0  0  0  0  0  0  0  0  0  0
   13.2550   -0.1617    8.3098 C   0  0  0  0  0  0  0  0  0  0  0  0
   14.0021    0.9657    8.0044 C   0  0  0  0  0  0  0  0  0  0  0  0
   13.3260    2.1034    7.6005 C   0  0  0  0  0  0  0  0  0  0  0  0
   11.9813    2.1770    7.4673 N   0  0  0  0  0  0  0  0  0  0  0  0
    9.2651    1.9425    6.5123 C   0  0  0  0  0  0  0  0  0  0  0  0
    9.0614    0.5701    2.1567 N   0  0  0  0  0  0  0  0  0  0  0  0
   11.7062    0.5402    2.9932 C   0  0  0  0  0  0  0  0  0  0  0  0
   13.0398    0.6390    3.3884 C   0  0  0  0  0  0  0  0  0  0  0  0
   14.5220    0.0417    0.3772 H   0  0  0  0  0  0  0  0  0  0  0  0
   12.1901   -0.1499   -0.3300 H   0  0  0  0  0  0  0  0  0  0  0  0
    9.9810   -0.3498   -0.8155 H   0  0  0  0  0  0  0  0  0  0  0  0
    5.9502    0.7381    1.2297 H   0  0  0  0  0  0  0  0  0  0  0  0
    8.3901    1.6126    3.5176 H   0  0  0  0  0  0  0  0  0  0  0  0
    6.3198    2.9943    5.1960 H   0  0  0  0  0  0  0  0  0  0  0  0
    7.9386    3.6178    4.8799 H   0  0  0  0  0  0  0  0  0  0  0  0
    5.9823    1.0439    6.6756 H   0  0  0  0  0  0  0  0  0  0  0  0
    6.8479   -0.2499    8.5949 H   0  0  0  0  0  0  0  0  0  0  0  0
    9.2305   -0.1899    9.1655 H   0  0  0  0  0  0  0  0  0  0  0  0
   11.2851   -0.9980    8.4125 H   0  0  0  0  0  0  0  0  0  0  0  0
   13.7420   -1.0816    8.6205 H   0  0  0  0  0  0  0  0  0  0  0  0
   15.0839    0.9559    8.0750 H   0  0  0  0  0  0  0  0  0  0  0  0
   13.8660    3.0140    7.3560 H   0  0  0  0  0  0  0  0  0  0  0  0
    9.9417    2.5605    5.9224 H   0  0  0  0  0  0  0  0  0  0  0  0
   10.9340    0.6897    3.7484 H   0  0  0  0  0  0  0  0  0  0  0  0
   13.2699    0.8635    4.4293 H   0  0  0  0  0  0  0  0  0  0  0  0
  1  2  3  0  0  0  0
  2  3  1  0  0  0  0
  3  4  2  0  0  0  0
  3 30  1  0  0  0  0
  4  5  1  0  0  0  0
  4 31  1  0  0  0  0
  5  6  2  0  0  0  0
  5 32  1  0  0  0  0
  6  7  1  0  0  0  0
  6 29  1  0  0  0  0
  7  8  1  0  0  0  0
  7 28  1  0  0  0  0
  8  9  2  0  0  0  0
  8 33  1  0  0  0  0
  9 10  1  0  0  0  0
 10 11  1  0  0  0  0
 10 28  2  0  0  0  0
 11 12  1  0  0  0  0
 11 34  1  0  0  0  0
 12 13  2  0  0  0  0
 12 14  1  0  0  0  0
 14 15  1  0  0  0  0
 14 35  1  0  0  0  0
 15 16  1  0  0  0  0
 15 36  1  0  0  0  0
 15 37  1  0  0  0  0
 16 17  2  0  0  0  0
 16 27  1  0  0  0  0
 17 18  1  0  0  0  0
 17 38  1  0  0  0  0
 18 19  2  0  0  0  0
 18 39  1  0  0  0  0
 19 20  1  0  0  0  0
 19 40  1  0  0  0  0
 20 21  1  0  0  0  0
 20 27  2  0  0  0  0
 21 22  2  0  0  0  0
 21 26  1  0  0  0  0
 22 23  1  0  0  0  0
 22 41  1  0  0  0  0
 23 24  2  0  0  0  0
 23 42  1  0  0  0  0
 24 25  1  0  0  0  0
 24 43  1  0  0  0  0
 25 26  2  0  0  0  0
 25 44  1  0  0  0  0
 27 45  1  0  0  0  0
 29 30  2  0  0  0  0
 29 46  1  0  0  0  0
 30 47  1  0  0  0  0
M  END
$$$$
