
 OpenBabel01122422383D

 46 49  0  0  0  0  0  0  0  0999 V2000
   -8.2302    3.7907   -5.2151 C   0  0  0  0  0  0  0  0  0  0  0  0
   -7.5447    2.9663   -4.1689 C   0  0  0  0  0  0  0  0  0  0  0  0
   -6.3738    2.2776   -4.4701 C   0  0  0  0  0  0  0  0  0  0  0  0
   -5.7228    1.5318   -3.4870 C   0  0  0  0  0  0  0  0  0  0  0  0
   -6.2076    1.4774   -2.1683 C   0  0  0  0  0  0  0  0  0  0  0  0
   -5.4332    0.7826   -1.1236 C   0  0  0  0  0  0  0  0  0  0  0  0
   -4.0379    0.7609   -1.1416 C   0  0  0  0  0  0  0  0  0  0  0  0
   -3.3555    0.0802   -0.1474 C   0  0  0  0  0  0  0  0  0  0  0  0
   -4.0810   -0.5506    0.8523 C   0  0  0  0  0  0  0  0  0  0  0  0
   -5.4719   -0.4682    0.8256 C   0  0  0  0  0  0  0  0  0  0  0  0
   -6.1810   -1.1015    1.8587 N   0  0  0  0  0  0  0  0  0  0  0  0
   -7.5516   -1.1074    1.9978 C   0  0  0  0  0  0  0  0  0  0  0  0
   -8.3728   -0.5545    1.2735 O   0  0  0  0  0  0  0  0  0  0  0  0
   -8.0889   -1.8717    3.1586 C   0  0  0  0  0  0  0  0  0  0  0  0
   -9.4701   -1.8843    3.3809 C   0  0  0  0  0  0  0  0  0  0  0  0
   -9.9867   -2.6250    4.4373 C   0  0  0  0  0  0  0  0  0  0  0  0
  -11.4233   -2.7127    4.7492 C   0  0  0  0  0  0  0  0  0  0  0  0
  -12.4097   -2.6028    3.7589 C   0  0  0  0  0  0  0  0  0  0  0  0
  -13.7465   -2.6650    4.1224 C   0  0  0  0  0  0  0  0  0  0  0  0
  -14.1720   -2.8328    5.3898 N   0  0  0  0  0  0  0  0  0  0  0  0
  -13.2194   -2.9586    6.3345 C   0  0  0  0  0  0  0  0  0  0  0  0
  -11.8607   -2.9125    6.0672 C   0  0  0  0  0  0  0  0  0  0  0  0
   -9.1554   -3.3114    5.2606 N   0  0  0  0  0  0  0  0  0  0  0  0
   -7.8062   -3.2992    5.0612 N   0  0  0  0  0  0  0  0  0  0  0  0
   -7.3074   -2.5967    4.0336 C   0  0  0  0  0  0  0  0  0  0  0  0
   -5.9517   -2.6694    3.9236 O   0  0  0  0  0  0  0  0  0  0  0  0
   -6.1372    0.1859   -0.1414 N   0  0  0  0  0  0  0  0  0  0  0  0
   -7.4125    2.1379   -1.8873 C   0  0  0  0  0  0  0  0  0  0  0  0
   -8.0685    2.8853   -2.8713 C   0  0  0  0  0  0  0  0  0  0  0  0
   -7.7027    3.7310   -6.1750 H   0  0  0  0  0  0  0  0  0  0  0  0
   -8.2510    4.8429   -4.9133 H   0  0  0  0  0  0  0  0  0  0  0  0
   -9.2508    3.4329   -5.3721 H   0  0  0  0  0  0  0  0  0  0  0  0
   -5.9447    2.3139   -5.4687 H   0  0  0  0  0  0  0  0  0  0  0  0
   -4.8222    0.9963   -3.7664 H   0  0  0  0  0  0  0  0  0  0  0  0
   -3.4861    1.2783   -1.9192 H   0  0  0  0  0  0  0  0  0  0  0  0
   -2.2701    0.0555   -0.1581 H   0  0  0  0  0  0  0  0  0  0  0  0
   -3.5540   -1.0853    1.6348 H   0  0  0  0  0  0  0  0  0  0  0  0
   -5.6271   -1.6041    2.5425 H   0  0  0  0  0  0  0  0  0  0  0  0
  -10.1260   -1.3093    2.7328 H   0  0  0  0  0  0  0  0  0  0  0  0
  -12.1588   -2.4824    2.7097 H   0  0  0  0  0  0  0  0  0  0  0  0
  -14.5316   -2.5786    3.3765 H   0  0  0  0  0  0  0  0  0  0  0  0
  -13.5844   -3.0985    7.3479 H   0  0  0  0  0  0  0  0  0  0  0  0
  -11.1535   -3.0231    6.8847 H   0  0  0  0  0  0  0  0  0  0  0  0
   -5.7467   -3.2785    4.6638 H   0  0  0  0  0  0  0  0  0  0  0  0
   -7.8361    2.0909   -0.8834 H   0  0  0  0  0  0  0  0  0  0  0  0
   -8.9861    3.4092   -2.6168 H   0  0  0  0  0  0  0  0  0  0  0  0
  1  2  1  0  0  0  0
  1 30  1  0  0  0  0
  1 31  1  0  0  0  0
  1 32  1  0  0  0  0
  2  3  2  0  0  0  0
  2 29  1  0  0  0  0
  3  4  1  0  0  0  0
  3 33  1  0  0  0  0
  4  5  2  0  0  0  0
  4 34  1  0  0  0  0
  5  6  1  0  0  0  0
  5 28  1  0  0  0  0
  6  7  2  0  0  0  0
  6 27  1  0  0  0  0
  7  8  1  0  0  0  0
  7 35  1  0  0  0  0
  8  9  2  0  0  0  0
  8 36  1  0  0  0  0
  9 10  1  0  0  0  0
  9 37  1  0  0  0  0
 10 11  1  0  0  0  0
 10 27  2  0  0  0  0
 11 12  1  0  0  0  0
 11 38  1  0  0  0  0
 12 13  2  0  0  0  0
 12 14  1  0  0  0  0
 14 15  2  0  0  0  0
 14 25  1  0  0  0  0
 15 16  1  0  0  0  0
 15 39  1  0  0  0  0
 16 17  1  0  0  0  0
 16 23  2  0  0  0  0
 17 18  2  0  0  0  0
 17 22  1  0  0  0  0
 18 19  1  0  0  0  0
 18 40  1  0  0  0  0
 19 20  2  0  0  0  0
 19 41  1  0  0  0  0
 20 21  1  0  0  0  0
 21 22  2  0  0  0  0
 21 42  1  0  0  0  0
 22 43  1  0  0  0  0
 23 24  1  0  0  0  0
 24 25  2  0  0  0  0
 25 26  1  0  0  0  0
 26 44  1  0  0  0  0
 28 29  2  0  0  0  0
 28 45  1  0  0  0  0
 29 46  1  0  0  0  0
M  END
$$$$
