
 OpenBabel01122422383D

 37 39  0  0  0  0  0  0  0  0999 V2000
    9.0890   -4.3321   -1.9622 N   0  0  0  0  0  0  0  0  0  0  0  0
    8.5198   -3.4312   -1.5036 C   0  0  0  0  0  0  0  0  0  0  0  0
    7.8556   -2.2938   -0.9483 C   0  0  0  0  0  0  0  0  0  0  0  0
    6.6105   -2.4149   -0.3507 C   0  0  0  0  0  0  0  0  0  0  0  0
    6.0086   -3.6102   -0.2792 F   0  0  0  0  0  0  0  0  0  0  0  0
    5.9784   -1.2925    0.1786 C   0  0  0  0  0  0  0  0  0  0  0  0
    4.7718   -1.4179    0.7476 F   0  0  0  0  0  0  0  0  0  0  0  0
    6.5716   -0.0292    0.1336 C   0  0  0  0  0  0  0  0  0  0  0  0
    7.8315    0.1018   -0.4473 C   0  0  0  0  0  0  0  0  0  0  0  0
    8.5835    1.3806   -0.5571 C   0  0  0  0  0  0  0  0  0  0  0  0
    9.6337    1.3241   -1.1873 O   0  0  0  0  0  0  0  0  0  0  0  0
    8.0961    2.5138    0.0744 N   0  0  0  0  0  0  0  0  0  0  0  0
    8.7242    3.7868   -0.0014 C   0  0  0  0  0  0  0  0  0  0  0  0
    9.7126    4.0796   -0.9451 C   0  0  0  0  0  0  0  0  0  0  0  0
   10.3527    5.3131   -0.9501 C   0  0  0  0  0  0  0  0  0  0  0  0
    9.9791    6.3064   -0.0447 C   0  0  0  0  0  0  0  0  0  0  0  0
   10.6466    7.5627   -0.0915 N   0  0  0  0  0  0  0  0  0  0  0  0
   12.0384    7.6153   -0.1143 C   0  0  0  0  0  0  0  0  0  0  0  0
   12.6984    8.7706   -0.2267 C   0  0  0  0  0  0  0  0  0  0  0  0
   11.9684   10.0027   -0.3551 C   0  0  0  0  0  0  0  0  0  0  0  0
   10.6301   10.0024   -0.3546 C   0  0  0  0  0  0  0  0  0  0  0  0
    9.8703    8.7259   -0.2211 C   0  0  0  0  0  0  0  0  0  0  0  0
    8.6427    8.7732   -0.2821 O   0  0  0  0  0  0  0  0  0  0  0  0
    8.9563    6.0490    0.8741 C   0  0  0  0  0  0  0  0  0  0  0  0
    8.3469    4.7930    0.8936 C   0  0  0  0  0  0  0  0  0  0  0  0
    7.4059    4.5395    1.8183 F   0  0  0  0  0  0  0  0  0  0  0  0
    8.4608   -1.0373   -0.9971 C   0  0  0  0  0  0  0  0  0  0  0  0
    6.0215    0.8087    0.5465 H   0  0  0  0  0  0  0  0  0  0  0  0
    7.3295    2.4535    0.7312 H   0  0  0  0  0  0  0  0  0  0  0  0
   10.0049    3.3763   -1.7159 H   0  0  0  0  0  0  0  0  0  0  0  0
   11.1065    5.5018   -1.7113 H   0  0  0  0  0  0  0  0  0  0  0  0
   12.5728    6.6754   -0.0031 H   0  0  0  0  0  0  0  0  0  0  0  0
   13.7830    8.8005   -0.2236 H   0  0  0  0  0  0  0  0  0  0  0  0
   12.5268   10.9273   -0.4604 H   0  0  0  0  0  0  0  0  0  0  0  0
   10.0428   10.9019   -0.4677 H   0  0  0  0  0  0  0  0  0  0  0  0
    8.6568    6.7991    1.5998 H   0  0  0  0  0  0  0  0  0  0  0  0
    9.4408   -0.9406   -1.4702 H   0  0  0  0  0  0  0  0  0  0  0  0
  1  2  3  0  0  0  0
  2  3  1  0  0  0  0
  3  4  2  0  0  0  0
  3 27  1  0  0  0  0
  4  5  1  0  0  0  0
  4  6  1  0  0  0  0
  6  7  1  0  0  0  0
  6  8  2  0  0  0  0
  8  9  1  0  0  0  0
  8 28  1  0  0  0  0
  9 10  1  0  0  0  0
  9 27  2  0  0  0  0
 10 11  2  0  0  0  0
 10 12  1  0  0  0  0
 12 13  1  0  0  0  0
 12 29  1  0  0  0  0
 13 14  2  0  0  0  0
 13 25  1  0  0  0  0
 14 15  1  0  0  0  0
 14 30  1  0  0  0  0
 15 16  2  0  0  0  0
 15 31  1  0  0  0  0
 16 17  1  0  0  0  0
 16 24  1  0  0  0  0
 17 18  1  0  0  0  0
 17 22  1  0  0  0  0
 18 19  2  0  0  0  0
 18 32  1  0  0  0  0
 19 20  1  0  0  0  0
 19 33  1  0  0  0  0
 20 21  2  0  0  0  0
 20 34  1  0  0  0  0
 21 22  1  0  0  0  0
 21 35  1  0  0  0  0
 22 23  2  0  0  0  0
 24 25  2  0  0  0  0
 24 36  1  0  0  0  0
 25 26  1  0  0  0  0
 27 37  1  0  0  0  0
M  END
$$$$
