
 OpenBabel01122422353D

 45 48  0  0  0  0  0  0  0  0999 V2000
   -4.4691    2.0811    6.2596 C   0  0  0  0  0  0  0  0  0  0  0  0
   -3.6155    1.4307    5.2119 C   0  0  0  0  0  0  0  0  0  0  0  0
   -2.2238    1.5134    5.2597 C   0  0  0  0  0  0  0  0  0  0  0  0
   -1.4464    0.8807    4.2805 C   0  0  0  0  0  0  0  0  0  0  0  0
   -2.0191    0.1573    3.2442 C   0  0  0  0  0  0  0  0  0  0  0  0
   -1.2292   -0.4448    2.3362 N   0  0  0  0  0  0  0  0  0  0  0  0
   -1.8223   -1.1469    1.3419 C   0  0  0  0  0  0  0  0  0  0  0  0
   -3.1937   -1.2781    1.1861 C   0  0  0  0  0  0  0  0  0  0  0  0
   -3.7787   -2.0354    0.0293 C   0  0  0  0  0  0  0  0  0  0  0  0
   -3.3570   -3.4066    0.0561 O   0  0  0  0  0  0  0  0  0  0  0  0
   -4.3384   -4.3125    0.2456 C   0  0  0  0  0  0  0  0  0  0  0  0
   -5.5184   -4.0778    0.4328 O   0  0  0  0  0  0  0  0  0  0  0  0
   -3.7933   -5.7338    0.1712 C   0  0  0  0  0  0  0  0  0  0  0  0
   -2.5870   -5.9664    0.6282 N   0  0  0  0  0  0  0  0  0  0  0  0
   -2.1103   -7.2630    0.5721 N   0  0  0  0  0  0  0  0  0  0  0  0
   -0.8412   -7.4970    1.2042 C   0  0  0  0  0  0  0  0  0  0  0  0
    0.0988   -6.4578    1.3460 C   0  0  0  0  0  0  0  0  0  0  0  0
    1.3622   -6.6924    1.9074 C   0  0  0  0  0  0  0  0  0  0  0  0
    1.7133   -7.9584    2.3622 C   0  0  0  0  0  0  0  0  0  0  0  0
    0.7876   -8.9943    2.2766 C   0  0  0  0  0  0  0  0  0  0  0  0
   -0.4670   -8.7586    1.7097 C   0  0  0  0  0  0  0  0  0  0  0  0
   -1.3211   -9.7922    1.6997 F   0  0  0  0  0  0  0  0  0  0  0  0
   -2.8292   -8.2789   -0.0299 C   0  0  0  0  0  0  0  0  0  0  0  0
   -4.0662   -8.1714   -0.5095 C   0  0  0  0  0  0  0  0  0  0  0  0
   -4.6512   -6.8341   -0.4211 C   0  0  0  0  0  0  0  0  0  0  0  0
   -5.7688   -6.6148   -0.8591 O   0  0  0  0  0  0  0  0  0  0  0  0
   -4.0019   -0.6461    2.1340 C   0  0  0  0  0  0  0  0  0  0  0  0
   -3.4242    0.0800    3.1871 C   0  0  0  0  0  0  0  0  0  0  0  0
   -4.2109    0.7163    4.1663 C   0  0  0  0  0  0  0  0  0  0  0  0
   -3.8623    2.6044    7.0057 H   0  0  0  0  0  0  0  0  0  0  0  0
   -5.0636    1.3245    6.7824 H   0  0  0  0  0  0  0  0  0  0  0  0
   -5.1415    2.8123    5.7999 H   0  0  0  0  0  0  0  0  0  0  0  0
   -1.7268    2.0628    6.0557 H   0  0  0  0  0  0  0  0  0  0  0  0
   -0.3629    0.9531    4.3328 H   0  0  0  0  0  0  0  0  0  0  0  0
   -1.1303   -1.6146    0.6456 H   0  0  0  0  0  0  0  0  0  0  0  0
   -3.4119   -1.5977   -0.9060 H   0  0  0  0  0  0  0  0  0  0  0  0
   -4.8694   -1.9233    0.0089 H   0  0  0  0  0  0  0  0  0  0  0  0
   -0.1388   -5.4547    0.9952 H   0  0  0  0  0  0  0  0  0  0  0  0
    2.0757   -5.8745    1.9870 H   0  0  0  0  0  0  0  0  0  0  0  0
    2.6902   -8.1401    2.7960 H   0  0  0  0  0  0  0  0  0  0  0  0
    1.0254   -9.9880    2.6509 H   0  0  0  0  0  0  0  0  0  0  0  0
   -2.3156   -9.2291   -0.1253 H   0  0  0  0  0  0  0  0  0  0  0  0
   -4.6204   -8.9783   -0.9639 H   0  0  0  0  0  0  0  0  0  0  0  0
   -5.0851   -0.7162    2.0563 H   0  0  0  0  0  0  0  0  0  0  0  0
   -5.2959    0.6480    4.1180 H   0  0  0  0  0  0  0  0  0  0  0  0
  1  2  1  0  0  0  0
  1 30  1  0  0  0  0
  1 31  1  0  0  0  0
  1 32  1  0  0  0  0
  2  3  2  0  0  0  0
  2 29  1  0  0  0  0
  3  4  1  0  0  0  0
  3 33  1  0  0  0  0
  4  5  2  0  0  0  0
  4 34  1  0  0  0  0
  5  6  1  0  0  0  0
  5 28  1  0  0  0  0
  6  7  2  0  0  0  0
  7  8  1  0  0  0  0
  7 35  1  0  0  0  0
  8  9  1  0  0  0  0
  8 27  2  0  0  0  0
  9 10  1  0  0  0  0
  9 36  1  0  0  0  0
  9 37  1  0  0  0  0
 10 11  1  0  0  0  0
 11 12  2  0  0  0  0
 11 13  1  0  0  0  0
 13 14  2  0  0  0  0
 13 25  1  0  0  0  0
 14 15  1  0  0  0  0
 15 16  1  0  0  0  0
 15 23  1  0  0  0  0
 16 17  2  0  0  0  0
 16 21  1  0  0  0  0
 17 18  1  0  0  0  0
 17 38  1  0  0  0  0
 18 19  2  0  0  0  0
 18 39  1  0  0  0  0
 19 20  1  0  0  0  0
 19 40  1  0  0  0  0
 20 21  2  0  0  0  0
 20 41  1  0  0  0  0
 21 22  1  0  0  0  0
 23 24  2  0  0  0  0
 23 42  1  0  0  0  0
 24 25  1  0  0  0  0
 24 43  1  0  0  0  0
 25 26  2  0  0  0  0
 27 28  1  0  0  0  0
 27 44  1  0  0  0  0
 28 29  2  0  0  0  0
 29 45  1  0  0  0  0
M  END
$$$$
