
 OpenBabel01122422383D

 48 51  0  0  0  0  0  0  0  0999 V2000
    0.8619   -0.0083    0.2228 O   0  0  0  0  0  0  0  0  0  0  0  0
    2.0716   -0.0673    0.0237 C   0  0  0  0  0  0  0  0  0  0  0  0
    2.8092   -1.2256    0.1217 N   0  0  0  0  0  0  0  0  0  0  0  0
    2.2406   -2.4893    0.5084 C   0  0  0  0  0  0  0  0  0  0  0  0
    2.3043   -2.6964    1.9994 C   0  0  0  0  0  0  0  0  0  0  0  0
    3.3368   -3.4351    2.5836 C   0  0  0  0  0  0  0  0  0  0  0  0
    3.3823   -3.5987    3.9657 C   0  0  0  0  0  0  0  0  0  0  0  0
    2.4110   -3.0046    4.7778 C   0  0  0  0  0  0  0  0  0  0  0  0
    1.3788   -2.2223    4.2315 C   0  0  0  0  0  0  0  0  0  0  0  0
    0.4043   -1.5111    5.0877 C   0  0  0  0  0  0  0  0  0  0  0  0
   -0.9283   -1.3045    4.7077 C   0  0  0  0  0  0  0  0  0  0  0  0
   -1.7981   -0.5770    5.5231 C   0  0  0  0  0  0  0  0  0  0  0  0
   -1.3148   -0.0803    6.7196 C   0  0  0  0  0  0  0  0  0  0  0  0
   -0.0488   -0.2557    7.1423 N   0  0  0  0  0  0  0  0  0  0  0  0
    0.7723   -0.9540    6.3172 C   0  0  0  0  0  0  0  0  0  0  0  0
    1.3383   -2.1013    2.8314 C   0  0  0  0  0  0  0  0  0  0  0  0
    2.8751    1.1060   -0.3537 C   0  0  0  0  0  0  0  0  0  0  0  0
    4.1938    1.0166   -0.6319 N   0  0  0  0  0  0  0  0  0  0  0  0
    4.5555    2.2894   -0.9173 N   0  0  0  0  0  0  0  0  0  0  0  0
    5.9379    2.5982   -1.2698 C   0  0  0  0  0  0  0  0  0  0  0  0
    6.7438    3.0231   -0.0659 C   0  0  0  0  0  0  0  0  0  0  0  0
    6.9069    2.1563    1.0264 C   0  0  0  0  0  0  0  0  0  0  0  0
    7.6370    2.5523    2.1478 C   0  0  0  0  0  0  0  0  0  0  0  0
    8.2259    3.8130    2.1839 C   0  0  0  0  0  0  0  0  0  0  0  0
    8.0939    4.6750    1.0976 C   0  0  0  0  0  0  0  0  0  0  0  0
    7.3576    4.2850   -0.0227 C   0  0  0  0  0  0  0  0  0  0  0  0
    3.5125    3.1703   -0.8784 C   0  0  0  0  0  0  0  0  0  0  0  0
    2.4137    2.4397   -0.4984 C   0  0  0  0  0  0  0  0  0  0  0  0
    3.8123   -1.1175    0.0097 H   0  0  0  0  0  0  0  0  0  0  0  0
    2.7991   -3.2745   -0.0129 H   0  0  0  0  0  0  0  0  0  0  0  0
    1.2010   -2.5517    0.1660 H   0  0  0  0  0  0  0  0  0  0  0  0
    4.1114   -3.8866    1.9677 H   0  0  0  0  0  0  0  0  0  0  0  0
    4.1815   -4.1802    4.4187 H   0  0  0  0  0  0  0  0  0  0  0  0
    2.4790   -3.1590    5.8526 H   0  0  0  0  0  0  0  0  0  0  0  0
   -1.3089   -1.6998    3.7688 H   0  0  0  0  0  0  0  0  0  0  0  0
   -2.8250   -0.3997    5.2249 H   0  0  0  0  0  0  0  0  0  0  0  0
   -1.9515    0.4954    7.3866 H   0  0  0  0  0  0  0  0  0  0  0  0
    1.7903   -1.0351    6.6875 H   0  0  0  0  0  0  0  0  0  0  0  0
    0.5596   -1.4993    2.3625 H   0  0  0  0  0  0  0  0  0  0  0  0
    5.9035    3.3884   -2.0287 H   0  0  0  0  0  0  0  0  0  0  0  0
    6.3788    1.7093   -1.7353 H   0  0  0  0  0  0  0  0  0  0  0  0
    6.4505    1.1675    1.0176 H   0  0  0  0  0  0  0  0  0  0  0  0
    7.7367    1.8775    2.9938 H   0  0  0  0  0  0  0  0  0  0  0  0
    8.7876    4.1237    3.0619 H   0  0  0  0  0  0  0  0  0  0  0  0
    8.5602    5.6565    1.1262 H   0  0  0  0  0  0  0  0  0  0  0  0
    7.2674    4.9743   -0.8591 H   0  0  0  0  0  0  0  0  0  0  0  0
    3.6393    4.2196   -1.1049 H   0  0  0  0  0  0  0  0  0  0  0  0
    1.4054    2.7995   -0.3453 H   0  0  0  0  0  0  0  0  0  0  0  0
  1  2  2  0  0  0  0
  2  3  1  0  0  0  0
  2 17  1  0  0  0  0
  3  4  1  0  0  0  0
  3 29  1  0  0  0  0
  4  5  1  0  0  0  0
  4 30  1  0  0  0  0
  4 31  1  0  0  0  0
  5  6  2  0  0  0  0
  5 16  1  0  0  0  0
  6  7  1  0  0  0  0
  6 32  1  0  0  0  0
  7  8  2  0  0  0  0
  7 33  1  0  0  0  0
  8  9  1  0  0  0  0
  8 34  1  0  0  0  0
  9 10  1  0  0  0  0
  9 16  2  0  0  0  0
 10 11  2  0  0  0  0
 10 15  1  0  0  0  0
 11 12  1  0  0  0  0
 11 35  1  0  0  0  0
 12 13  2  0  0  0  0
 12 36  1  0  0  0  0
 13 14  1  0  0  0  0
 13 37  1  0  0  0  0
 14 15  2  0  0  0  0
 15 38  1  0  0  0  0
 16 39  1  0  0  0  0
 17 18  2  0  0  0  0
 17 28  1  0  0  0  0
 18 19  1  0  0  0  0
 19 20  1  0  0  0  0
 19 27  1  0  0  0  0
 20 21  1  0  0  0  0
 20 40  1  0  0  0  0
 20 41  1  0  0  0  0
 21 22  2  0  0  0  0
 21 26  1  0  0  0  0
 22 23  1  0  0  0  0
 22 42  1  0  0  0  0
 23 24  2  0  0  0  0
 23 43  1  0  0  0  0
 24 25  1  0  0  0  0
 24 44  1  0  0  0  0
 25 26  2  0  0  0  0
 25 45  1  0  0  0  0
 26 46  1  0  0  0  0
 27 28  2  0  0  0  0
 27 47  1  0  0  0  0
 28 48  1  0  0  0  0
M  END
$$$$
