
 OpenBabel01122422383D

 49 52  0  0  0  0  0  0  0  0999 V2000
    1.0542    0.3095   -0.1441 O   0  0  0  0  0  0  0  0  0  0  0  0
    2.2787    0.2327   -0.0682 C   0  0  0  0  0  0  0  0  0  0  0  0
    2.9700    0.5997    1.0544 N   0  0  0  0  0  0  0  0  0  0  0  0
    2.2739    1.1046    2.2145 C   0  0  0  0  0  0  0  0  0  0  0  0
    3.2408    1.4169    3.3028 C   0  0  0  0  0  0  0  0  0  0  0  0
    4.4703    1.8876    3.0345 N   0  0  0  0  0  0  0  0  0  0  0  0
    5.0813    2.0675    4.2648 O   0  0  0  0  0  0  0  0  0  0  0  0
    4.2219    1.7044    5.2538 C   0  0  0  0  0  0  0  0  0  0  0  0
    4.7012    1.8408    6.6465 C   0  0  0  0  0  0  0  0  0  0  0  0
    5.2852    0.5867    6.9910 O   0  0  0  0  0  0  0  0  0  0  0  0
    5.7533    0.4519    8.2701 C   0  0  0  0  0  0  0  0  0  0  0  0
    6.3690   -0.7761    8.5296 C   0  0  0  0  0  0  0  0  0  0  0  0
    6.8827   -1.0630    9.7976 C   0  0  0  0  0  0  0  0  0  0  0  0
    6.7824   -0.1193   10.8184 C   0  0  0  0  0  0  0  0  0  0  0  0
    6.1730    1.1071   10.5713 C   0  0  0  0  0  0  0  0  0  0  0  0
    5.6656    1.3891    9.3036 C   0  0  0  0  0  0  0  0  0  0  0  0
    5.0887    2.5847    9.1202 F   0  0  0  0  0  0  0  0  0  0  0  0
    3.0418    1.2800    4.6950 C   0  0  0  0  0  0  0  0  0  0  0  0
    3.1090   -0.3259   -1.1820 C   0  0  0  0  0  0  0  0  0  0  0  0
    2.4750   -1.1144   -2.0666 C   0  0  0  0  0  0  0  0  0  0  0  0
    3.1235   -1.6889   -3.1592 N   0  0  0  0  0  0  0  0  0  0  0  0
    2.4104   -2.5582   -4.0448 C   0  0  0  0  0  0  0  0  0  0  0  0
    1.5751   -3.5565   -3.5282 C   0  0  0  0  0  0  0  0  0  0  0  0
    0.9087   -4.4168   -4.3939 C   0  0  0  0  0  0  0  0  0  0  0  0
    0.1573   -5.4039   -3.8881 F   0  0  0  0  0  0  0  0  0  0  0  0
    1.0195   -4.2802   -5.7720 C   0  0  0  0  0  0  0  0  0  0  0  0
    1.8262   -3.2737   -6.2969 C   0  0  0  0  0  0  0  0  0  0  0  0
    2.5318   -2.4270   -5.4364 C   0  0  0  0  0  0  0  0  0  0  0  0
    4.4946   -1.4681   -3.3859 C   0  0  0  0  0  0  0  0  0  0  0  0
    5.1759   -1.9566   -4.2851 O   0  0  0  0  0  0  0  0  0  0  0  0
    5.1824   -0.5893   -2.3979 C   0  0  0  0  0  0  0  0  0  0  0  0
    4.5157   -0.0499   -1.3700 C   0  0  0  0  0  0  0  0  0  0  0  0
    3.9743    0.5114    1.1276 H   0  0  0  0  0  0  0  0  0  0  0  0
    1.5624    0.3377    2.5405 H   0  0  0  0  0  0  0  0  0  0  0  0
    1.7086    1.9984    1.9301 H   0  0  0  0  0  0  0  0  0  0  0  0
    3.8391    2.0537    7.2886 H   0  0  0  0  0  0  0  0  0  0  0  0
    5.4411    2.6461    6.7162 H   0  0  0  0  0  0  0  0  0  0  0  0
    6.4503   -1.5177    7.7376 H   0  0  0  0  0  0  0  0  0  0  0  0
    7.3584   -2.0230    9.9851 H   0  0  0  0  0  0  0  0  0  0  0  0
    7.1798   -0.3449   11.8003 H   0  0  0  0  0  0  0  0  0  0  0  0
    6.0854    1.8497   11.3585 H   0  0  0  0  0  0  0  0  0  0  0  0
    2.1644    0.9236    5.2158 H   0  0  0  0  0  0  0  0  0  0  0  0
    1.4081   -1.3096   -1.9792 H   0  0  0  0  0  0  0  0  0  0  0  0
    1.4795   -3.7188   -2.4596 H   0  0  0  0  0  0  0  0  0  0  0  0
    0.4833   -4.9609   -6.4252 H   0  0  0  0  0  0  0  0  0  0  0  0
    1.9140   -3.1486   -7.3731 H   0  0  0  0  0  0  0  0  0  0  0  0
    3.1553   -1.6446   -5.8645 H   0  0  0  0  0  0  0  0  0  0  0  0
    6.2389   -0.4185   -2.5642 H   0  0  0  0  0  0  0  0  0  0  0  0
    5.0366    0.6113   -0.6869 H   0  0  0  0  0  0  0  0  0  0  0  0
  1  2  2  0  0  0  0
  2  3  1  0  0  0  0
  2 19  1  0  0  0  0
  3  4  1  0  0  0  0
  3 33  1  0  0  0  0
  4  5  1  0  0  0  0
  4 34  1  0  0  0  0
  4 35  1  0  0  0  0
  5  6  2  0  0  0  0
  5 18  1  0  0  0  0
  6  7  1  0  0  0  0
  7  8  1  0  0  0  0
  8  9  1  0  0  0  0
  8 18  2  0  0  0  0
  9 10  1  0  0  0  0
  9 36  1  0  0  0  0
  9 37  1  0  0  0  0
 10 11  1  0  0  0  0
 11 12  2  0  0  0  0
 11 16  1  0  0  0  0
 12 13  1  0  0  0  0
 12 38  1  0  0  0  0
 13 14  2  0  0  0  0
 13 39  1  0  0  0  0
 14 15  1  0  0  0  0
 14 40  1  0  0  0  0
 15 16  2  0  0  0  0
 15 41  1  0  0  0  0
 16 17  1  0  0  0  0
 18 42  1  0  0  0  0
 19 20  2  0  0  0  0
 19 32  1  0  0  0  0
 20 21  1  0  0  0  0
 20 43  1  0  0  0  0
 21 22  1  0  0  0  0
 21 29  1  0  0  0  0
 22 23  2  0  0  0  0
 22 28  1  0  0  0  0
 23 24  1  0  0  0  0
 23 44  1  0  0  0  0
 24 25  1  0  0  0  0
 24 26  2  0  0  0  0
 26 27  1  0  0  0  0
 26 45  1  0  0  0  0
 27 28  2  0  0  0  0
 27 46  1  0  0  0  0
 28 47  1  0  0  0  0
 29 30  2  0  0  0  0
 29 31  1  0  0  0  0
 31 32  2  0  0  0  0
 31 48  1  0  0  0  0
 32 49  1  0  0  0  0
M  END
$$$$
