
 OpenBabel01122422383D

 56 59  0  0  0  0  0  0  0  0999 V2000
    0.6675    1.2526   -2.9839 C   0  0  0  0  0  0  0  0  0  0  0  0
    0.4631    2.4115   -2.0735 C   0  0  0  0  0  0  0  0  0  0  0  0
    1.2940    2.9012   -1.0549 C   0  0  0  0  0  0  0  0  0  0  0  0
    2.6476    2.4388   -0.6769 C   0  0  0  0  0  0  0  0  0  0  0  0
    2.9857    1.2635   -0.8663 O   0  0  0  0  0  0  0  0  0  0  0  0
    3.5747    3.3635   -0.1346 N   0  0  0  0  0  0  0  0  0  0  0  0
    5.0018    2.9855   -0.0478 C   0  0  0  0  0  0  0  0  0  0  0  0
    5.5332    1.9148    0.9067 C   0  0  0  0  0  0  0  0  0  0  0  0
    4.7646    0.8205    1.1382 N   0  0  0  0  0  0  0  0  0  0  0  0
    6.6888    1.9472    1.3462 O   0  0  0  0  0  0  0  0  0  0  0  0
    3.3680    4.8116   -0.2081 C   0  0  0  0  0  0  0  0  0  0  0  0
    2.8836    5.4493    1.0743 C   0  0  0  0  0  0  0  0  0  0  0  0
    3.1307    4.9434    2.3570 C   0  0  0  0  0  0  0  0  0  0  0  0
    2.6335    5.5999    3.5037 C   0  0  0  0  0  0  0  0  0  0  0  0
    1.8943    6.7913    3.4079 C   0  0  0  0  0  0  0  0  0  0  0  0
    1.3454    7.5391    4.5754 C   0  0  0  0  0  0  0  0  0  0  0  0
    1.9094    7.4877    5.8617 C   0  0  0  0  0  0  0  0  0  0  0  0
    1.4347    8.3087    6.8988 C   0  0  0  0  0  0  0  0  0  0  0  0
    0.3910    9.2028    6.6741 C   0  0  0  0  0  0  0  0  0  0  0  0
   -0.2145    9.2441    5.4280 C   0  0  0  0  0  0  0  0  0  0  0  0
    0.2410    8.4047    4.4099 C   0  0  0  0  0  0  0  0  0  0  0  0
    1.6987    7.2961    2.1080 C   0  0  0  0  0  0  0  0  0  0  0  0
    2.1657    6.6418    0.9699 C   0  0  0  0  0  0  0  0  0  0  0  0
    0.4871    3.8915   -0.4633 C   0  0  0  0  0  0  0  0  0  0  0  0
   -0.5630    4.2322   -1.1988 N   0  0  0  0  0  0  0  0  0  0  0  0
   -0.6387    3.2745   -2.1513 N   0  0  0  0  0  0  0  0  0  0  0  0
   -1.7737    3.2913   -3.0237 C   0  0  0  0  0  0  0  0  0  0  0  0
   -2.4713    4.5031   -3.2157 C   0  0  0  0  0  0  0  0  0  0  0  0
   -3.5829    4.5592   -4.0632 C   0  0  0  0  0  0  0  0  0  0  0  0
   -4.0136    3.4046   -4.7006 C   0  0  0  0  0  0  0  0  0  0  0  0
   -5.0799    3.4491   -5.5094 F   0  0  0  0  0  0  0  0  0  0  0  0
   -3.3589    2.1969   -4.5005 C   0  0  0  0  0  0  0  0  0  0  0  0
   -2.2413    2.1380   -3.6623 C   0  0  0  0  0  0  0  0  0  0  0  0
    1.6898    0.8730   -2.9566 H   0  0  0  0  0  0  0  0  0  0  0  0
    0.4567    1.5161   -4.0252 H   0  0  0  0  0  0  0  0  0  0  0  0
    0.0150    0.4255   -2.6814 H   0  0  0  0  0  0  0  0  0  0  0  0
    5.5445    3.8832    0.2808 H   0  0  0  0  0  0  0  0  0  0  0  0
    5.3455    2.7464   -1.0598 H   0  0  0  0  0  0  0  0  0  0  0  0
    4.0326    0.5982    0.4677 H   0  0  0  0  0  0  0  0  0  0  0  0
    5.2380    0.0430    1.5817 H   0  0  0  0  0  0  0  0  0  0  0  0
    2.6860    5.0379   -1.0349 H   0  0  0  0  0  0  0  0  0  0  0  0
    4.3022    5.3061   -0.4982 H   0  0  0  0  0  0  0  0  0  0  0  0
    3.6991    4.0247    2.4891 H   0  0  0  0  0  0  0  0  0  0  0  0
    2.8362    5.1471    4.4732 H   0  0  0  0  0  0  0  0  0  0  0  0
    2.7500    6.8337    6.0785 H   0  0  0  0  0  0  0  0  0  0  0  0
    1.8977    8.2651    7.8816 H   0  0  0  0  0  0  0  0  0  0  0  0
    0.0476    9.8635    7.4652 H   0  0  0  0  0  0  0  0  0  0  0  0
   -1.0336    9.9310    5.2324 H   0  0  0  0  0  0  0  0  0  0  0  0
   -0.2872    8.4540    3.4607 H   0  0  0  0  0  0  0  0  0  0  0  0
    1.1759    8.2351    1.9486 H   0  0  0  0  0  0  0  0  0  0  0  0
    1.9345    7.0708   -0.0035 H   0  0  0  0  0  0  0  0  0  0  0  0
    0.6412    4.4389    0.4526 H   0  0  0  0  0  0  0  0  0  0  0  0
   -2.1471    5.4205   -2.7252 H   0  0  0  0  0  0  0  0  0  0  0  0
   -4.1137    5.4924   -4.2248 H   0  0  0  0  0  0  0  0  0  0  0  0
   -3.7284    1.2995   -4.9866 H   0  0  0  0  0  0  0  0  0  0  0  0
   -1.8077    1.1622   -3.4904 H   0  0  0  0  0  0  0  0  0  0  0  0
  1  2  1  0  0  0  0
  1 34  1  0  0  0  0
  1 35  1  0  0  0  0
  1 36  1  0  0  0  0
  2  3  2  0  0  0  0
  2 26  1  0  0  0  0
  3  4  1  0  0  0  0
  3 24  1  0  0  0  0
  4  5  2  0  0  0  0
  4  6  1  0  0  0  0
  6  7  1  0  0  0  0
  6 11  1  0  0  0  0
  7  8  1  0  0  0  0
  7 37  1  0  0  0  0
  7 38  1  0  0  0  0
  8  9  1  0  0  0  0
  8 10  2  0  0  0  0
  9 39  1  0  0  0  0
  9 40  1  0  0  0  0
 11 12  1  0  0  0  0
 11 41  1  0  0  0  0
 11 42  1  0  0  0  0
 12 13  2  0  0  0  0
 12 23  1  0  0  0  0
 13 14  1  0  0  0  0
 13 43  1  0  0  0  0
 14 15  2  0  0  0  0
 14 44  1  0  0  0  0
 15 16  1  0  0  0  0
 15 22  1  0  0  0  0
 16 17  2  0  0  0  0
 16 21  1  0  0  0  0
 17 18  1  0  0  0  0
 17 45  1  0  0  0  0
 18 19  2  0  0  0  0
 18 46  1  0  0  0  0
 19 20  1  0  0  0  0
 19 47  1  0  0  0  0
 20 21  2  0  0  0  0
 20 48  1  0  0  0  0
 21 49  1  0  0  0  0
 22 23  2  0  0  0  0
 22 50  1  0  0  0  0
 23 51  1  0  0  0  0
 24 25  2  0  0  0  0
 24 52  1  0  0  0  0
 25 26  1  0  0  0  0
 26 27  1  0  0  0  0
 27 28  2  0  0  0  0
 27 33  1  0  0  0  0
 28 29  1  0  0  0  0
 28 53  1  0  0  0  0
 29 30  2  0  0  0  0
 29 54  1  0  0  0  0
 30 31  1  0  0  0  0
 30 32  1  0  0  0  0
 32 33  2  0  0  0  0
 32 55  1  0  0  0  0
 33 56  1  0  0  0  0
M  END
$$$$
