
 OpenBabel01122422383D

 45 48  0  0  0  0  0  0  0  0999 V2000
    0.9659    0.1592    0.0369 O   0  0  0  0  0  0  0  0  0  0  0  0
    2.1729   -0.0290    0.1585 C   0  0  0  0  0  0  0  0  0  0  0  0
    2.8608   -1.2184   -0.0248 N   0  0  0  0  0  0  0  0  0  0  0  0
    2.2502   -2.4076   -0.4929 C   0  0  0  0  0  0  0  0  0  0  0  0
    1.0393   -2.3827   -1.1898 C   0  0  0  0  0  0  0  0  0  0  0  0
    0.4002   -3.5616   -1.5664 C   0  0  0  0  0  0  0  0  0  0  0  0
    0.9911   -4.7961   -1.3139 C   0  0  0  0  0  0  0  0  0  0  0  0
    0.3967   -5.9974   -1.6351 O   0  0  0  0  0  0  0  0  0  0  0  0
   -0.3632   -6.0603   -2.8004 C   0  0  0  0  0  0  0  0  0  0  0  0
   -1.4011   -6.9808   -2.8308 C   0  0  0  0  0  0  0  0  0  0  0  0
   -2.1780   -7.0608   -3.9852 C   0  0  0  0  0  0  0  0  0  0  0  0
   -1.8959   -6.2212   -5.0586 C   0  0  0  0  0  0  0  0  0  0  0  0
   -0.8313   -5.3447   -4.9413 C   0  0  0  0  0  0  0  0  0  0  0  0
   -0.0475   -5.2629   -3.8478 N   0  0  0  0  0  0  0  0  0  0  0  0
    2.2134   -4.8364   -0.6367 C   0  0  0  0  0  0  0  0  0  0  0  0
    2.8513   -3.6468   -0.2415 C   0  0  0  0  0  0  0  0  0  0  0  0
    2.9770    1.1402    0.6621 C   0  0  0  0  0  0  0  0  0  0  0  0
    3.9361    0.9012    1.5177 N   0  0  0  0  0  0  0  0  0  0  0  0
    4.5750    1.9978    2.0674 N   0  0  0  0  0  0  0  0  0  0  0  0
    5.7623    1.6985    2.8137 C   0  0  0  0  0  0  0  0  0  0  0  0
    5.9313    0.4356    3.4135 C   0  0  0  0  0  0  0  0  0  0  0  0
    7.1145    0.0960    4.0803 C   0  0  0  0  0  0  0  0  0  0  0  0
    8.1591    1.0127    4.1641 C   0  0  0  0  0  0  0  0  0  0  0  0
    8.0093    2.2777    3.6070 C   0  0  0  0  0  0  0  0  0  0  0  0
    6.8257    2.6124    2.9480 C   0  0  0  0  0  0  0  0  0  0  0  0
    6.7612    3.8354    2.3979 F   0  0  0  0  0  0  0  0  0  0  0  0
    4.0967    3.2839    1.9005 C   0  0  0  0  0  0  0  0  0  0  0  0
    3.1395    3.6434    1.0467 C   0  0  0  0  0  0  0  0  0  0  0  0
    2.6159    2.5484    0.2287 C   0  0  0  0  0  0  0  0  0  0  0  0
    1.9438    2.7670   -0.7657 O   0  0  0  0  0  0  0  0  0  0  0  0
    3.7983   -1.2719    0.3582 H   0  0  0  0  0  0  0  0  0  0  0  0
    0.5605   -1.4516   -1.4739 H   0  0  0  0  0  0  0  0  0  0  0  0
   -0.5567   -3.4862   -2.0748 H   0  0  0  0  0  0  0  0  0  0  0  0
   -1.6090   -7.6127   -1.9751 H   0  0  0  0  0  0  0  0  0  0  0  0
   -3.0010   -7.7674   -4.0472 H   0  0  0  0  0  0  0  0  0  0  0  0
   -2.4885   -6.2485   -5.9662 H   0  0  0  0  0  0  0  0  0  0  0  0
   -0.5735   -4.6596   -5.7438 H   0  0  0  0  0  0  0  0  0  0  0  0
    2.6680   -5.7974   -0.4077 H   0  0  0  0  0  0  0  0  0  0  0  0
    3.7947   -3.7127    0.2916 H   0  0  0  0  0  0  0  0  0  0  0  0
    5.1277   -0.2964    3.3728 H   0  0  0  0  0  0  0  0  0  0  0  0
    7.2191   -0.8898    4.5269 H   0  0  0  0  0  0  0  0  0  0  0  0
    9.0882    0.7416    4.6588 H   0  0  0  0  0  0  0  0  0  0  0  0
    8.8107    3.0077    3.6617 H   0  0  0  0  0  0  0  0  0  0  0  0
    4.5518    4.0396    2.5338 H   0  0  0  0  0  0  0  0  0  0  0  0
    2.7827    4.6500    0.8957 H   0  0  0  0  0  0  0  0  0  0  0  0
  1  2  2  0  0  0  0
  2  3  1  0  0  0  0
  2 17  1  0  0  0  0
  3  4  1  0  0  0  0
  3 31  1  0  0  0  0
  4  5  2  0  0  0  0
  4 16  1  0  0  0  0
  5  6  1  0  0  0  0
  5 32  1  0  0  0  0
  6  7  2  0  0  0  0
  6 33  1  0  0  0  0
  7  8  1  0  0  0  0
  7 15  1  0  0  0  0
  8  9  1  0  0  0  0
  9 10  2  0  0  0  0
  9 14  1  0  0  0  0
 10 11  1  0  0  0  0
 10 34  1  0  0  0  0
 11 12  2  0  0  0  0
 11 35  1  0  0  0  0
 12 13  1  0  0  0  0
 12 36  1  0  0  0  0
 13 14  2  0  0  0  0
 13 37  1  0  0  0  0
 15 16  2  0  0  0  0
 15 38  1  0  0  0  0
 16 39  1  0  0  0  0
 17 18  2  0  0  0  0
 17 29  1  0  0  0  0
 18 19  1  0  0  0  0
 19 20  1  0  0  0  0
 19 27  1  0  0  0  0
 20 21  2  0  0  0  0
 20 25  1  0  0  0  0
 21 22  1  0  0  0  0
 21 40  1  0  0  0  0
 22 23  2  0  0  0  0
 22 41  1  0  0  0  0
 23 24  1  0  0  0  0
 23 42  1  0  0  0  0
 24 25  2  0  0  0  0
 24 43  1  0  0  0  0
 25 26  1  0  0  0  0
 27 28  2  0  0  0  0
 27 44  1  0  0  0  0
 28 29  1  0  0  0  0
 28 45  1  0  0  0  0
 29 30  2  0  0  0  0
M  END
$$$$
