
 OpenBabel01122422383D

 43 46  0  0  0  0  0  0  0  0999 V2000
    1.0508    0.0077    0.0858 N   0  0  0  0  0  0  0  0  0  0  0  0
    2.3118    0.0077    0.0858 C   0  0  0  0  0  0  0  0  0  0  0  0
    3.8318    0.0077    0.0858 C   0  0  0  0  0  0  0  0  0  0  0  0
    4.5239    1.1591    0.2776 C   0  0  0  0  0  0  0  0  0  0  0  0
    3.9042    2.4137    0.4405 N   0  0  0  0  0  0  0  0  0  0  0  0
    4.5307    3.6362    0.6754 C   0  0  0  0  0  0  0  0  0  0  0  0
    5.7482    3.7742    0.7525 O   0  0  0  0  0  0  0  0  0  0  0  0
    3.7018    4.8066    0.8158 C   0  0  0  0  0  0  0  0  0  0  0  0
    4.1099    6.0985    1.0484 C   0  0  0  0  0  0  0  0  0  0  0  0
    2.9618    6.8957    0.8640 C   0  0  0  0  0  0  0  0  0  0  0  0
    2.9309    8.3513    0.7414 C   0  0  0  0  0  0  0  0  0  0  0  0
    1.8258    9.1062    1.1511 C   0  0  0  0  0  0  0  0  0  0  0  0
    1.7985   10.4909    0.9342 C   0  0  0  0  0  0  0  0  0  0  0  0
    2.8682   11.1324    0.3091 C   0  0  0  0  0  0  0  0  0  0  0  0
    3.9842   10.3974   -0.0782 C   0  0  0  0  0  0  0  0  0  0  0  0
    4.0101    9.0237    0.1444 C   0  0  0  0  0  0  0  0  0  0  0  0
    5.0989    8.3525   -0.2644 F   0  0  0  0  0  0  0  0  0  0  0  0
    1.8787    6.1094    0.7159 N   0  0  0  0  0  0  0  0  0  0  0  0
    2.3527    4.7978    0.6619 O   0  0  0  0  0  0  0  0  0  0  0  0
    5.9725    1.0498    0.3597 C   0  0  0  0  0  0  0  0  0  0  0  0
    6.5904   -0.1299    0.3075 C   0  0  0  0  0  0  0  0  0  0  0  0
    5.8977   -1.3143    0.1683 N   0  0  0  0  0  0  0  0  0  0  0  0
    6.6042   -2.5483    0.0955 C   0  0  0  0  0  0  0  0  0  0  0  0
    7.7053   -2.6695   -0.7627 C   0  0  0  0  0  0  0  0  0  0  0  0
    8.3533   -3.8947   -0.8976 C   0  0  0  0  0  0  0  0  0  0  0  0
    7.9368   -4.9911   -0.1438 C   0  0  0  0  0  0  0  0  0  0  0  0
    6.8740   -4.8645    0.7486 C   0  0  0  0  0  0  0  0  0  0  0  0
    6.2017   -3.6488    0.8604 C   0  0  0  0  0  0  0  0  0  0  0  0
    4.4996   -1.3256    0.0452 C   0  0  0  0  0  0  0  0  0  0  0  0
    3.8077   -2.3305   -0.1138 O   0  0  0  0  0  0  0  0  0  0  0  0
    2.8906    2.4583    0.3842 H   0  0  0  0  0  0  0  0  0  0  0  0
    5.1322    6.4166    1.1974 H   0  0  0  0  0  0  0  0  0  0  0  0
    0.9758    8.6258    1.6312 H   0  0  0  0  0  0  0  0  0  0  0  0
    0.9301   11.0701    1.2410 H   0  0  0  0  0  0  0  0  0  0  0  0
    2.8317   12.2021    0.1146 H   0  0  0  0  0  0  0  0  0  0  0  0
    4.8272   10.8751   -0.5674 H   0  0  0  0  0  0  0  0  0  0  0  0
    6.6099    1.9072    0.5007 H   0  0  0  0  0  0  0  0  0  0  0  0
    7.6705   -0.1835    0.4208 H   0  0  0  0  0  0  0  0  0  0  0  0
    8.0214   -1.8344   -1.3836 H   0  0  0  0  0  0  0  0  0  0  0  0
    9.1683   -3.9990   -1.6082 H   0  0  0  0  0  0  0  0  0  0  0  0
    8.4359   -5.9495   -0.2595 H   0  0  0  0  0  0  0  0  0  0  0  0
    6.5567   -5.7140    1.3475 H   0  0  0  0  0  0  0  0  0  0  0  0
    5.3743   -3.5637    1.5611 H   0  0  0  0  0  0  0  0  0  0  0  0
  1  2  3  0  0  0  0
  2  3  1  0  0  0  0
  3  4  2  0  0  0  0
  3 29  1  0  0  0  0
  4  5  1  0  0  0  0
  4 20  1  0  0  0  0
  5  6  1  0  0  0  0
  5 31  1  0  0  0  0
  6  7  2  0  0  0  0
  6  8  1  0  0  0  0
  8  9  2  0  0  0  0
  8 19  1  0  0  0  0
  9 10  1  0  0  0  0
  9 32  1  0  0  0  0
 10 11  1  0  0  0  0
 10 18  2  0  0  0  0
 11 12  2  0  0  0  0
 11 16  1  0  0  0  0
 12 13  1  0  0  0  0
 12 33  1  0  0  0  0
 13 14  2  0  0  0  0
 13 34  1  0  0  0  0
 14 15  1  0  0  0  0
 14 35  1  0  0  0  0
 15 16  2  0  0  0  0
 15 36  1  0  0  0  0
 16 17  1  0  0  0  0
 18 19  1  0  0  0  0
 20 21  2  0  0  0  0
 20 37  1  0  0  0  0
 21 22  1  0  0  0  0
 21 38  1  0  0  0  0
 22 23  1  0  0  0  0
 22 29  1  0  0  0  0
 23 24  2  0  0  0  0
 23 28  1  0  0  0  0
 24 25  1  0  0  0  0
 24 39  1  0  0  0  0
 25 26  2  0  0  0  0
 25 40  1  0  0  0  0
 26 27  1  0  0  0  0
 26 41  1  0  0  0  0
 27 28  2  0  0  0  0
 27 42  1  0  0  0  0
 28 43  1  0  0  0  0
 29 30  2  0  0  0  0
M  END
$$$$
