
 OpenBabel01122422383D

 45 48  0  0  0  0  0  0  0  0999 V2000
    0.9209    0.1668    0.2168 O   0  0  0  0  0  0  0  0  0  0  0  0
    2.1240   -0.0268    0.1377 C   0  0  0  0  0  0  0  0  0  0  0  0
    2.8385   -0.3374   -1.0054 N   0  0  0  0  0  0  0  0  0  0  0  0
    2.1588   -0.5578   -2.2163 C   0  0  0  0  0  0  0  0  0  0  0  0
    1.2573   -1.5715   -2.1939 N   0  0  0  0  0  0  0  0  0  0  0  0
    0.6731   -1.8839   -3.3560 C   0  0  0  0  0  0  0  0  0  0  0  0
   -0.2015   -2.9173   -3.2826 O   0  0  0  0  0  0  0  0  0  0  0  0
    0.9088   -1.2577   -4.5540 C   0  0  0  0  0  0  0  0  0  0  0  0
    1.8170   -0.2065   -4.5528 C   0  0  0  0  0  0  0  0  0  0  0  0
    2.4937    0.1769   -3.3742 C   0  0  0  0  0  0  0  0  0  0  0  0
    3.4137    1.3484   -3.3994 C   0  0  0  0  0  0  0  0  0  0  0  0
    3.4847    2.2744   -2.3392 C   0  0  0  0  0  0  0  0  0  0  0  0
    4.3623    3.3626   -2.3656 C   0  0  0  0  0  0  0  0  0  0  0  0
    5.1499    3.5915   -3.4862 C   0  0  0  0  0  0  0  0  0  0  0  0
    5.0697    2.7251   -4.5704 C   0  0  0  0  0  0  0  0  0  0  0  0
    4.2257    1.6105   -4.5192 C   0  0  0  0  0  0  0  0  0  0  0  0
    3.0006    0.2083    1.3565 C   0  0  0  0  0  0  0  0  0  0  0  0
    4.2150    0.6652    1.1509 N   0  0  0  0  0  0  0  0  0  0  0  0
    5.0323    0.8210    2.2573 N   0  0  0  0  0  0  0  0  0  0  0  0
    6.2991    1.4597    2.0348 C   0  0  0  0  0  0  0  0  0  0  0  0
    6.9977    2.0905    3.0901 C   0  0  0  0  0  0  0  0  0  0  0  0
    8.2571    2.6656    2.8963 C   0  0  0  0  0  0  0  0  0  0  0  0
    8.8349    2.6280    1.6381 C   0  0  0  0  0  0  0  0  0  0  0  0
   10.0504    3.1590    1.4544 F   0  0  0  0  0  0  0  0  0  0  0  0
    8.1665    2.0464    0.5685 C   0  0  0  0  0  0  0  0  0  0  0  0
    6.9018    1.4760    0.7638 C   0  0  0  0  0  0  0  0  0  0  0  0
    4.6824    0.3112    3.4949 C   0  0  0  0  0  0  0  0  0  0  0  0
    3.4820   -0.1626    3.8178 C   0  0  0  0  0  0  0  0  0  0  0  0
    2.4887   -0.1130    2.7486 C   0  0  0  0  0  0  0  0  0  0  0  0
    1.3153   -0.3499    2.9811 O   0  0  0  0  0  0  0  0  0  0  0  0
    3.7833    0.0211   -1.0359 H   0  0  0  0  0  0  0  0  0  0  0  0
   -0.1645   -3.1005   -2.3264 H   0  0  0  0  0  0  0  0  0  0  0  0
    0.3944   -1.5663   -5.4568 H   0  0  0  0  0  0  0  0  0  0  0  0
    1.9682    0.3307   -5.4860 H   0  0  0  0  0  0  0  0  0  0  0  0
    2.8365    2.1851   -1.4705 H   0  0  0  0  0  0  0  0  0  0  0  0
    4.4101    4.0403   -1.5164 H   0  0  0  0  0  0  0  0  0  0  0  0
    5.8117    4.4527   -3.5214 H   0  0  0  0  0  0  0  0  0  0  0  0
    5.6607    2.9151   -5.4626 H   0  0  0  0  0  0  0  0  0  0  0  0
    4.2062    0.9505   -5.3840 H   0  0  0  0  0  0  0  0  0  0  0  0
    6.5627    2.1630    4.0834 H   0  0  0  0  0  0  0  0  0  0  0  0
    8.7852    3.1366    3.7198 H   0  0  0  0  0  0  0  0  0  0  0  0
    8.6374    2.0296   -0.4092 H   0  0  0  0  0  0  0  0  0  0  0  0
    6.4046    1.0134   -0.0845 H   0  0  0  0  0  0  0  0  0  0  0  0
    5.4745    0.2889    4.2361 H   0  0  0  0  0  0  0  0  0  0  0  0
    3.2075   -0.5477    4.7904 H   0  0  0  0  0  0  0  0  0  0  0  0
  1  2  2  0  0  0  0
  2  3  1  0  0  0  0
  2 17  1  0  0  0  0
  3  4  1  0  0  0  0
  3 31  1  0  0  0  0
  4  5  2  0  0  0  0
  4 10  1  0  0  0  0
  5  6  1  0  0  0  0
  6  7  1  0  0  0  0
  6  8  2  0  0  0  0
  7 32  1  0  0  0  0
  8  9  1  0  0  0  0
  8 33  1  0  0  0  0
  9 10  2  0  0  0  0
  9 34  1  0  0  0  0
 10 11  1  0  0  0  0
 11 12  2  0  0  0  0
 11 16  1  0  0  0  0
 12 13  1  0  0  0  0
 12 35  1  0  0  0  0
 13 14  2  0  0  0  0
 13 36  1  0  0  0  0
 14 15  1  0  0  0  0
 14 37  1  0  0  0  0
 15 16  2  0  0  0  0
 15 38  1  0  0  0  0
 16 39  1  0  0  0  0
 17 18  2  0  0  0  0
 17 29  1  0  0  0  0
 18 19  1  0  0  0  0
 19 20  1  0  0  0  0
 19 27  1  0  0  0  0
 20 21  2  0  0  0  0
 20 26  1  0  0  0  0
 21 22  1  0  0  0  0
 21 40  1  0  0  0  0
 22 23  2  0  0  0  0
 22 41  1  0  0  0  0
 23 24  1  0  0  0  0
 23 25  1  0  0  0  0
 25 26  2  0  0  0  0
 25 42  1  0  0  0  0
 26 43  1  0  0  0  0
 27 28  2  0  0  0  0
 27 44  1  0  0  0  0
 28 29  1  0  0  0  0
 28 45  1  0  0  0  0
 29 30  2  0  0  0  0
M  END
$$$$
