
 OpenBabel01122422383D

 48 51  0  0  1  0  0  0  0  0999 V2000
    2.2149    1.3906    0.0294 N   0  0  0  0  0  0  0  0  0  0  0  0
    2.4088    0.0354   -0.0441 C   0  0  0  0  0  0  0  0  0  0  0  0
    2.0378   -0.5837   -1.0402 O   0  0  0  0  0  0  0  0  0  0  0  0
    3.1843   -0.5984    1.1414 C   0  0  3  0  0  0  0  0  0  0  0  0
    2.8006   -1.9869    1.3204 N   0  0  0  0  0  0  0  0  0  0  0  0
    1.6977   -2.3218    2.0806 C   0  0  0  0  0  0  0  0  0  0  0  0
    1.0711   -1.5025    2.7465 O   0  0  0  0  0  0  0  0  0  0  0  0
    1.2974   -3.7662    2.0475 C   0  0  0  0  0  0  0  0  0  0  0  0
    2.0499   -4.5965    1.2738 N   0  0  0  0  0  0  0  0  0  0  0  0
    1.7014   -5.9106    1.2433 C   0  0  0  0  0  0  0  0  0  0  0  0
    2.5175   -6.7746    0.3624 C   0  0  0  0  0  0  0  0  0  0  0  0
    3.8836   -6.5034    0.1502 C   0  0  0  0  0  0  0  0  0  0  0  0
    4.6612   -7.2994   -0.6968 C   0  0  0  0  0  0  0  0  0  0  0  0
    4.0801   -8.3800   -1.3448 C   0  0  0  0  0  0  0  0  0  0  0  0
    4.8202   -9.1384   -2.1641 F   0  0  0  0  0  0  0  0  0  0  0  0
    2.7392   -8.6815   -1.1591 C   0  0  0  0  0  0  0  0  0  0  0  0
    1.9636   -7.8832   -0.3119 C   0  0  0  0  0  0  0  0  0  0  0  0
    0.6298   -6.4048    1.9927 C   0  0  0  0  0  0  0  0  0  0  0  0
   -0.1246   -5.5339    2.7758 C   0  0  0  0  0  0  0  0  0  0  0  0
    0.2088   -4.1872    2.8024 C   0  0  0  0  0  0  0  0  0  0  0  0
    4.6924   -0.4581    0.9900 C   0  0  0  0  0  0  0  0  0  0  0  0
    5.3258   -0.4573   -0.2598 C   0  0  0  0  0  0  0  0  0  0  0  0
    6.7039   -0.2413   -0.3619 C   0  0  0  0  0  0  0  0  0  0  0  0
    7.4886   -0.0394    0.7830 C   0  0  0  0  0  0  0  0  0  0  0  0
    8.8671    0.2137    0.6919 C   0  0  0  0  0  0  0  0  0  0  0  0
    9.6337    0.4170    1.8409 C   0  0  0  0  0  0  0  0  0  0  0  0
    9.0326    0.3587    3.0948 C   0  0  0  0  0  0  0  0  0  0  0  0
    7.6636    0.1057    3.2002 C   0  0  0  0  0  0  0  0  0  0  0  0
    6.8747   -0.0867    2.0539 C   0  0  0  0  0  0  0  0  0  0  0  0
    5.4877   -0.3063    2.1410 C   0  0  0  0  0  0  0  0  0  0  0  0
    1.6898    1.8284   -0.7156 H   0  0  0  0  0  0  0  0  0  0  0  0
    2.3771    1.9156    0.8782 H   0  0  0  0  0  0  0  0  0  0  0  0
    2.8782   -0.0396    2.0361 H   0  0  0  0  0  0  0  0  0  0  0  0
    3.1186   -2.6831    0.6527 H   0  0  0  0  0  0  0  0  0  0  0  0
    4.3531   -5.6572    0.6506 H   0  0  0  0  0  0  0  0  0  0  0  0
    5.7114   -7.0771   -0.8555 H   0  0  0  0  0  0  0  0  0  0  0  0
    2.3009   -9.5265   -1.6800 H   0  0  0  0  0  0  0  0  0  0  0  0
    0.9093   -8.1278   -0.2058 H   0  0  0  0  0  0  0  0  0  0  0  0
    0.3774   -7.4611    1.9839 H   0  0  0  0  0  0  0  0  0  0  0  0
   -0.9632   -5.9055    3.3591 H   0  0  0  0  0  0  0  0  0  0  0  0
   -0.3614   -3.4842    3.4020 H   0  0  0  0  0  0  0  0  0  0  0  0
    4.7560   -0.6006   -1.1768 H   0  0  0  0  0  0  0  0  0  0  0  0
    7.1588   -0.2189   -1.3499 H   0  0  0  0  0  0  0  0  0  0  0  0
    9.3539    0.2629   -0.2794 H   0  0  0  0  0  0  0  0  0  0  0  0
   10.6980    0.6204    1.7552 H   0  0  0  0  0  0  0  0  0  0  0  0
    9.6277    0.5153    3.9909 H   0  0  0  0  0  0  0  0  0  0  0  0
    7.2122    0.0688    4.1900 H   0  0  0  0  0  0  0  0  0  0  0  0
    5.0130   -0.3397    3.1209 H   0  0  0  0  0  0  0  0  0  0  0  0
  1  2  1  0  0  0  0
  1 31  1  0  0  0  0
  1 32  1  0  0  0  0
  2  3  2  0  0  0  0
  2  4  1  0  0  0  0
  4  5  1  0  0  0  0
  4 21  1  0  0  0  0
  4 33  1  0  0  0  0
  5  6  1  0  0  0  0
  5 34  1  0  0  0  0
  6  7  2  0  0  0  0
  6  8  1  0  0  0  0
  8  9  2  0  0  0  0
  8 20  1  0  0  0  0
  9 10  1  0  0  0  0
 10 11  1  0  0  0  0
 10 18  2  0  0  0  0
 11 12  2  0  0  0  0
 11 17  1  0  0  0  0
 12 13  1  0  0  0  0
 12 35  1  0  0  0  0
 13 14  2  0  0  0  0
 13 36  1  0  0  0  0
 14 15  1  0  0  0  0
 14 16  1  0  0  0  0
 16 17  2  0  0  0  0
 16 37  1  0  0  0  0
 17 38  1  0  0  0  0
 18 19  1  0  0  0  0
 18 39  1  0  0  0  0
 19 20  2  0  0  0  0
 19 40  1  0  0  0  0
 20 41  1  0  0  0  0
 21 22  2  0  0  0  0
 21 30  1  0  0  0  0
 22 23  1  0  0  0  0
 22 42  1  0  0  0  0
 23 24  2  0  0  0  0
 23 43  1  0  0  0  0
 24 25  1  0  0  0  0
 24 29  1  0  0  0  0
 25 26  2  0  0  0  0
 25 44  1  0  0  0  0
 26 27  1  0  0  0  0
 26 45  1  0  0  0  0
 27 28  2  0  0  0  0
 27 46  1  0  0  0  0
 28 29  1  0  0  0  0
 28 47  1  0  0  0  0
 29 30  2  0  0  0  0
 30 48  1  0  0  0  0
M  END
$$$$
