
 OpenBabel01122422383D

 49 52  0  0  0  0  0  0  0  0999 V2000
    4.0644    1.0268   -2.5691 C   0  0  0  0  0  0  0  0  0  0  0  0
    4.1141    0.5294   -1.1931 N   0  0  0  0  0  0  0  0  0  0  0  0
    3.3259    1.0467   -0.1549 C   0  0  0  0  0  0  0  0  0  0  0  0
    2.8106    2.4569   -0.1093 C   0  0  0  0  0  0  0  0  0  0  0  0
    3.9014    3.4006   -0.1751 N   0  0  0  0  0  0  0  0  0  0  0  0
    3.9579    4.3622   -1.1604 C   0  0  0  0  0  0  0  0  0  0  0  0
    3.1280    4.4685   -2.0550 O   0  0  0  0  0  0  0  0  0  0  0  0
    5.0859    5.3283   -1.0954 C   0  0  0  0  0  0  0  0  0  0  0  0
    6.3081    5.0139   -0.4821 C   0  0  0  0  0  0  0  0  0  0  0  0
    7.3626    5.9505   -0.4256 C   0  0  0  0  0  0  0  0  0  0  0  0
    8.6414    5.6014    0.2287 C   0  0  0  0  0  0  0  0  0  0  0  0
    9.8629    6.1676   -0.1425 C   0  0  0  0  0  0  0  0  0  0  0  0
   11.0240    5.7856    0.5241 C   0  0  0  0  0  0  0  0  0  0  0  0
   10.9464    4.8471    1.5421 C   0  0  0  0  0  0  0  0  0  0  0  0
    9.7051    4.3246    1.8528 C   0  0  0  0  0  0  0  0  0  0  0  0
    8.5578    4.6756    1.2196 N   0  0  0  0  0  0  0  0  0  0  0  0
    7.1400    7.2101   -1.0050 C   0  0  0  0  0  0  0  0  0  0  0  0
    5.9356    7.5063   -1.6339 C   0  0  0  0  0  0  0  0  0  0  0  0
    5.7627    8.7134   -2.1867 F   0  0  0  0  0  0  0  0  0  0  0  0
    4.9090    6.5755   -1.6928 C   0  0  0  0  0  0  0  0  0  0  0  0
    2.9922    0.1055    0.7436 C   0  0  0  0  0  0  0  0  0  0  0  0
    3.4714   -1.1808    0.1894 C   0  0  0  0  0  0  0  0  0  0  0  0
    3.3269   -2.2478    0.7631 O   0  0  0  0  0  0  0  0  0  0  0  0
    4.0861   -0.8780   -1.0219 N   0  0  0  0  0  0  0  0  0  0  0  0
    4.8107   -1.7759   -1.8234 C   0  0  0  0  0  0  0  0  0  0  0  0
    4.2424   -3.0065   -2.1785 C   0  0  0  0  0  0  0  0  0  0  0  0
    4.9286   -3.8805   -3.0260 C   0  0  0  0  0  0  0  0  0  0  0  0
    6.2035   -3.5497   -3.4818 C   0  0  0  0  0  0  0  0  0  0  0  0
    6.7870   -2.3412   -3.1046 C   0  0  0  0  0  0  0  0  0  0  0  0
    6.0854   -1.4505   -2.2899 C   0  0  0  0  0  0  0  0  0  0  0  0
    3.6658    2.0390   -2.6356 H   0  0  0  0  0  0  0  0  0  0  0  0
    3.4439    0.3915   -3.2091 H   0  0  0  0  0  0  0  0  0  0  0  0
    5.0769    1.0676   -2.9840 H   0  0  0  0  0  0  0  0  0  0  0  0
    2.2784    2.6513    0.8287 H   0  0  0  0  0  0  0  0  0  0  0  0
    2.0974    2.6149   -0.9257 H   0  0  0  0  0  0  0  0  0  0  0  0
    4.5350    3.4332    0.6109 H   0  0  0  0  0  0  0  0  0  0  0  0
    6.4714    4.0225   -0.0635 H   0  0  0  0  0  0  0  0  0  0  0  0
    9.9291    6.8874   -0.9509 H   0  0  0  0  0  0  0  0  0  0  0  0
   11.9812    6.2169    0.2445 H   0  0  0  0  0  0  0  0  0  0  0  0
   11.8321    4.5273    2.0792 H   0  0  0  0  0  0  0  0  0  0  0  0
    9.5890    3.5844    2.6370 H   0  0  0  0  0  0  0  0  0  0  0  0
    7.8931    7.9925   -0.9696 H   0  0  0  0  0  0  0  0  0  0  0  0
    3.9804    6.8354   -2.1923 H   0  0  0  0  0  0  0  0  0  0  0  0
    2.3991    0.1796    1.6356 H   0  0  0  0  0  0  0  0  0  0  0  0
    3.2431   -3.2712   -1.8401 H   0  0  0  0  0  0  0  0  0  0  0  0
    4.4663   -4.8159   -3.3298 H   0  0  0  0  0  0  0  0  0  0  0  0
    6.7458   -4.2382   -4.1255 H   0  0  0  0  0  0  0  0  0  0  0  0
    7.7924   -2.0956   -3.4338 H   0  0  0  0  0  0  0  0  0  0  0  0
    6.5596   -0.5232   -1.9802 H   0  0  0  0  0  0  0  0  0  0  0  0
  1  2  1  0  0  0  0
  1 31  1  0  0  0  0
  1 32  1  0  0  0  0
  1 33  1  0  0  0  0
  2  3  1  0  0  0  0
  2 24  1  0  0  0  0
  3  4  1  0  0  0  0
  3 21  2  0  0  0  0
  4  5  1  0  0  0  0
  4 34  1  0  0  0  0
  4 35  1  0  0  0  0
  5  6  1  0  0  0  0
  5 36  1  0  0  0  0
  6  7  2  0  0  0  0
  6  8  1  0  0  0  0
  8  9  2  0  0  0  0
  8 20  1  0  0  0  0
  9 10  1  0  0  0  0
  9 37  1  0  0  0  0
 10 11  1  0  0  0  0
 10 17  2  0  0  0  0
 11 12  2  0  0  0  0
 11 16  1  0  0  0  0
 12 13  1  0  0  0  0
 12 38  1  0  0  0  0
 13 14  2  0  0  0  0
 13 39  1  0  0  0  0
 14 15  1  0  0  0  0
 14 40  1  0  0  0  0
 15 16  2  0  0  0  0
 15 41  1  0  0  0  0
 17 18  1  0  0  0  0
 17 42  1  0  0  0  0
 18 19  1  0  0  0  0
 18 20  2  0  0  0  0
 20 43  1  0  0  0  0
 21 22  1  0  0  0  0
 21 44  1  0  0  0  0
 22 23  2  0  0  0  0
 22 24  1  0  0  0  0
 24 25  1  0  0  0  0
 25 26  2  0  0  0  0
 25 30  1  0  0  0  0
 26 27  1  0  0  0  0
 26 45  1  0  0  0  0
 27 28  2  0  0  0  0
 27 46  1  0  0  0  0
 28 29  1  0  0  0  0
 28 47  1  0  0  0  0
 29 30  2  0  0  0  0
 29 48  1  0  0  0  0
 30 49  1  0  0  0  0
M  END
$$$$
