
 OpenBabel01122422353D

 49 52  0  0  0  0  0  0  0  0999 V2000
    7.5533    2.5438    0.5651 C   0  0  0  0  0  0  0  0  0  0  0  0
    6.5561    1.9310   -0.2382 O   0  0  0  0  0  0  0  0  0  0  0  0
    5.2489    2.0124    0.1704 C   0  0  0  0  0  0  0  0  0  0  0  0
    4.8632    2.6985    1.3260 C   0  0  0  0  0  0  0  0  0  0  0  0
    3.5176    2.8174    1.6722 C   0  0  0  0  0  0  0  0  0  0  0  0
    2.5099    2.2514    0.8845 C   0  0  0  0  0  0  0  0  0  0  0  0
    1.0841    2.3586    1.2633 C   0  0  0  0  0  0  0  0  0  0  0  0
    0.0602    2.4404    0.3081 C   0  0  0  0  0  0  0  0  0  0  0  0
   -1.2583    2.5260    0.7297 C   0  0  0  0  0  0  0  0  0  0  0  0
   -1.6366    2.5446    2.0218 N   0  0  0  0  0  0  0  0  0  0  0  0
   -0.6459    2.4717    2.9367 C   0  0  0  0  0  0  0  0  0  0  0  0
    0.6957    2.3723    2.6107 C   0  0  0  0  0  0  0  0  0  0  0  0
    2.9168    1.5434   -0.2600 C   0  0  0  0  0  0  0  0  0  0  0  0
    4.2730    1.3849   -0.6415 C   0  0  0  0  0  0  0  0  0  0  0  0
    4.6032    0.5418   -1.8304 C   0  0  0  0  0  0  0  0  0  0  0  0
    3.7190    0.4262   -2.9211 C   0  0  0  0  0  0  0  0  0  0  0  0
    3.9894   -0.4162   -4.0057 C   0  0  0  0  0  0  0  0  0  0  0  0
    5.1782   -1.1429   -4.0434 C   0  0  0  0  0  0  0  0  0  0  0  0
    5.5029   -2.0695   -5.1542 C   0  0  0  0  0  0  0  0  0  0  0  0
    6.6725   -2.2223   -5.5010 O   0  0  0  0  0  0  0  0  0  0  0  0
    4.3792   -2.8222   -5.8170 C   0  0  0  0  0  0  0  0  0  0  0  0
    3.7903   -2.1083   -7.0033 C   0  0  0  0  0  0  0  0  0  0  0  0
    2.5301   -1.7922   -6.9598 N   0  0  0  0  0  0  0  0  0  0  0  0
    2.0238   -1.1435   -8.0482 N   0  0  0  0  0  0  0  0  0  0  0  0
    2.7238   -0.7999   -9.1770 C   0  0  0  0  0  0  0  0  0  0  0  0
    2.2183   -0.2155  -10.1263 O   0  0  0  0  0  0  0  0  0  0  0  0
    4.1493   -1.1739   -9.1896 C   0  0  0  0  0  0  0  0  0  0  0  0
    4.6843   -1.8105   -8.1465 C   0  0  0  0  0  0  0  0  0  0  0  0
    6.0920   -1.0207   -3.0010 C   0  0  0  0  0  0  0  0  0  0  0  0
    5.7874   -0.2162   -1.9004 C   0  0  0  0  0  0  0  0  0  0  0  0
    8.5225    2.3531    0.0954 H   0  0  0  0  0  0  0  0  0  0  0  0
    7.5793    2.1047    1.5680 H   0  0  0  0  0  0  0  0  0  0  0  0
    7.4068    3.6274    0.6054 H   0  0  0  0  0  0  0  0  0  0  0  0
    5.5878    3.1597    1.9884 H   0  0  0  0  0  0  0  0  0  0  0  0
    3.2744    3.3742    2.5740 H   0  0  0  0  0  0  0  0  0  0  0  0
    0.2701    2.4416   -0.7566 H   0  0  0  0  0  0  0  0  0  0  0  0
   -2.0734    2.5785    0.0109 H   0  0  0  0  0  0  0  0  0  0  0  0
   -0.9650    2.4908    3.9740 H   0  0  0  0  0  0  0  0  0  0  0  0
    1.4249    2.2950    3.4130 H   0  0  0  0  0  0  0  0  0  0  0  0
    2.1454    1.0609   -0.8569 H   0  0  0  0  0  0  0  0  0  0  0  0
    2.7891    0.9905   -2.9485 H   0  0  0  0  0  0  0  0  0  0  0  0
    3.2582   -0.4683   -4.8060 H   0  0  0  0  0  0  0  0  0  0  0  0
    3.6001   -3.0431   -5.0776 H   0  0  0  0  0  0  0  0  0  0  0  0
    4.7672   -3.7940   -6.1437 H   0  0  0  0  0  0  0  0  0  0  0  0
    1.0392   -0.8997   -8.0197 H   0  0  0  0  0  0  0  0  0  0  0  0
    4.7177   -0.9067  -10.0700 H   0  0  0  0  0  0  0  0  0  0  0  0
    5.7265   -2.1007   -8.1049 H   0  0  0  0  0  0  0  0  0  0  0  0
    7.0337   -1.5651   -3.0191 H   0  0  0  0  0  0  0  0  0  0  0  0
    6.5045   -0.2058   -1.0832 H   0  0  0  0  0  0  0  0  0  0  0  0
  1  2  1  0  0  0  0
  1 31  1  0  0  0  0
  1 32  1  0  0  0  0
  1 33  1  0  0  0  0
  2  3  1  0  0  0  0
  3  4  2  0  0  0  0
  3 14  1  0  0  0  0
  4  5  1  0  0  0  0
  4 34  1  0  0  0  0
  5  6  2  0  0  0  0
  5 35  1  0  0  0  0
  6  7  1  0  0  0  0
  6 13  1  0  0  0  0
  7  8  2  0  0  0  0
  7 12  1  0  0  0  0
  8  9  1  0  0  0  0
  8 36  1  0  0  0  0
  9 10  2  0  0  0  0
  9 37  1  0  0  0  0
 10 11  1  0  0  0  0
 11 12  2  0  0  0  0
 11 38  1  0  0  0  0
 12 39  1  0  0  0  0
 13 14  2  0  0  0  0
 13 40  1  0  0  0  0
 14 15  1  0  0  0  0
 15 16  2  0  0  0  0
 15 30  1  0  0  0  0
 16 17  1  0  0  0  0
 16 41  1  0  0  0  0
 17 18  2  0  0  0  0
 17 42  1  0  0  0  0
 18 19  1  0  0  0  0
 18 29  1  0  0  0  0
 19 20  2  0  0  0  0
 19 21  1  0  0  0  0
 21 22  1  0  0  0  0
 21 43  1  0  0  0  0
 21 44  1  0  0  0  0
 22 23  2  0  0  0  0
 22 28  1  0  0  0  0
 23 24  1  0  0  0  0
 24 25  1  0  0  0  0
 24 45  1  0  0  0  0
 25 26  2  0  0  0  0
 25 27  1  0  0  0  0
 27 28  2  0  0  0  0
 27 46  1  0  0  0  0
 28 47  1  0  0  0  0
 29 30  2  0  0  0  0
 29 48  1  0  0  0  0
 30 49  1  0  0  0  0
M  END
$$$$
