
 OpenBabel01122422353D

 41 44  0  0  0  0  0  0  0  0999 V2000
    0.9864    0.1969    0.0780 O   0  0  0  0  0  0  0  0  0  0  0  0
    2.2052    0.0146    0.0448 C   0  0  0  0  0  0  0  0  0  0  0  0
    2.8311   -0.9592   -0.7199 N   0  0  0  0  0  0  0  0  0  0  0  0
    2.1521   -1.8677   -1.5078 C   0  0  0  0  0  0  0  0  0  0  0  0
    2.7896   -2.8218   -2.2069 C   0  0  0  0  0  0  0  0  0  0  0  0
    2.0069   -3.7962   -2.9891 C   0  0  0  0  0  0  0  0  0  0  0  0
    2.6165   -4.8354   -3.7001 C   0  0  0  0  0  0  0  0  0  0  0  0
    1.8350   -5.7674   -4.3973 C   0  0  0  0  0  0  0  0  0  0  0  0
    0.4426   -5.6670   -4.3994 C   0  0  0  0  0  0  0  0  0  0  0  0
   -0.1761   -4.6311   -3.7075 C   0  0  0  0  0  0  0  0  0  0  0  0
    0.6062   -3.7065   -3.0081 C   0  0  0  0  0  0  0  0  0  0  0  0
   -0.0492   -2.6203   -2.2511 C   0  0  0  0  0  0  0  0  0  0  0  0
   -1.2674   -2.4858   -2.2436 O   0  0  0  0  0  0  0  0  0  0  0  0
    0.7869   -1.7903   -1.5568 N   0  0  0  0  0  0  0  0  0  0  0  0
    3.0408    0.8712    0.9134 C   0  0  0  0  0  0  0  0  0  0  0  0
    2.4752    1.2755    2.1373 C   0  0  0  0  0  0  0  0  0  0  0  0
    3.1377    2.1552    3.0091 C   0  0  0  0  0  0  0  0  0  0  0  0
    2.5283    2.5942    4.2818 C   0  0  0  0  0  0  0  0  0  0  0  0
    1.1468    2.7050    4.4638 C   0  0  0  0  0  0  0  0  0  0  0  0
    0.6471    3.1161    5.6979 C   0  0  0  0  0  0  0  0  0  0  0  0
    1.5328    3.4114    6.7230 C   0  0  0  0  0  0  0  0  0  0  0  0
    2.8866    3.2853    6.4679 C   0  0  0  0  0  0  0  0  0  0  0  0
    3.3985    2.8900    5.2800 N   0  0  0  0  0  0  0  0  0  0  0  0
    4.4073    2.6051    2.6111 C   0  0  0  0  0  0  0  0  0  0  0  0
    4.9601    2.2089    1.3922 C   0  0  0  0  0  0  0  0  0  0  0  0
    6.1568    2.6891    1.0293 F   0  0  0  0  0  0  0  0  0  0  0  0
    4.2906    1.3458    0.5319 C   0  0  0  0  0  0  0  0  0  0  0  0
    3.8340   -1.0736   -0.6364 H   0  0  0  0  0  0  0  0  0  0  0  0
    3.8691   -2.9199   -2.2080 H   0  0  0  0  0  0  0  0  0  0  0  0
    3.6982   -4.9436   -3.7140 H   0  0  0  0  0  0  0  0  0  0  0  0
    2.3125   -6.5818   -4.9376 H   0  0  0  0  0  0  0  0  0  0  0  0
   -0.1620   -6.3958   -4.9340 H   0  0  0  0  0  0  0  0  0  0  0  0
   -1.2607   -4.5455   -3.7007 H   0  0  0  0  0  0  0  0  0  0  0  0
    0.3378   -1.0531   -1.0142 H   0  0  0  0  0  0  0  0  0  0  0  0
    1.4925    0.8849    2.4028 H   0  0  0  0  0  0  0  0  0  0  0  0
    0.4507    2.4907    3.6591 H   0  0  0  0  0  0  0  0  0  0  0  0
   -0.4247    3.2062    5.8512 H   0  0  0  0  0  0  0  0  0  0  0  0
    1.1778    3.7349    7.6949 H   0  0  0  0  0  0  0  0  0  0  0  0
    3.6217    3.5052    7.2369 H   0  0  0  0  0  0  0  0  0  0  0  0
    4.9706    3.2878    3.2440 H   0  0  0  0  0  0  0  0  0  0  0  0
    4.7356    1.1038   -0.4257 H   0  0  0  0  0  0  0  0  0  0  0  0
  1  2  2  0  0  0  0
  2  3  1  0  0  0  0
  2 15  1  0  0  0  0
  3  4  1  0  0  0  0
  3 28  1  0  0  0  0
  4  5  2  0  0  0  0
  4 14  1  0  0  0  0
  5  6  1  0  0  0  0
  5 29  1  0  0  0  0
  6  7  2  0  0  0  0
  6 11  1  0  0  0  0
  7  8  1  0  0  0  0
  7 30  1  0  0  0  0
  8  9  2  0  0  0  0
  8 31  1  0  0  0  0
  9 10  1  0  0  0  0
  9 32  1  0  0  0  0
 10 11  2  0  0  0  0
 10 33  1  0  0  0  0
 11 12  1  0  0  0  0
 12 13  2  0  0  0  0
 12 14  1  0  0  0  0
 14 34  1  0  0  0  0
 15 16  2  0  0  0  0
 15 27  1  0  0  0  0
 16 17  1  0  0  0  0
 16 35  1  0  0  0  0
 17 18  1  0  0  0  0
 17 24  2  0  0  0  0
 18 19  2  0  0  0  0
 18 23  1  0  0  0  0
 19 20  1  0  0  0  0
 19 36  1  0  0  0  0
 20 21  2  0  0  0  0
 20 37  1  0  0  0  0
 21 22  1  0  0  0  0
 21 38  1  0  0  0  0
 22 23  2  0  0  0  0
 22 39  1  0  0  0  0
 24 25  1  0  0  0  0
 24 40  1  0  0  0  0
 25 26  1  0  0  0  0
 25 27  2  0  0  0  0
 27 41  1  0  0  0  0
M  END
$$$$
