
 OpenBabel01122422383D

 46 49  0  0  0  0  0  0  0  0999 V2000
    1.0230   -0.0606   -0.3833 O   0  0  0  0  0  0  0  0  0  0  0  0
    2.1766   -0.0519    0.0377 C   0  0  0  0  0  0  0  0  0  0  0  0
    2.8106   -1.1356    0.6120 N   0  0  0  0  0  0  0  0  0  0  0  0
    2.1790   -2.3500    0.8537 C   0  0  0  0  0  0  0  0  0  0  0  0
    1.4115   -2.9720   -0.1255 C   0  0  0  0  0  0  0  0  0  0  0  0
    0.8158   -4.2054    0.1571 C   0  0  0  0  0  0  0  0  0  0  0  0
    0.1045   -4.9847   -0.9233 C   0  0  0  0  0  0  0  0  0  0  0  0
    1.0182   -5.9529   -1.6390 C   0  0  0  0  0  0  0  0  0  0  0  0
    1.1618   -7.2751   -1.1873 C   0  0  0  0  0  0  0  0  0  0  0  0
    2.0480   -8.1506   -1.8167 C   0  0  0  0  0  0  0  0  0  0  0  0
    2.8014   -7.7191   -2.9059 C   0  0  0  0  0  0  0  0  0  0  0  0
    2.6715   -6.4095   -3.3637 C   0  0  0  0  0  0  0  0  0  0  0  0
    1.7836   -5.5319   -2.7371 C   0  0  0  0  0  0  0  0  0  0  0  0
    0.9618   -4.7257    1.4436 C   0  0  0  0  0  0  0  0  0  0  0  0
    1.7518   -4.0369    2.3505 C   0  0  0  0  0  0  0  0  0  0  0  0
    2.4026   -2.8880    2.0678 N   0  0  0  0  0  0  0  0  0  0  0  0
    3.0158    1.1576    0.0408 C   0  0  0  0  0  0  0  0  0  0  0  0
    4.3301    1.1010    0.3423 N   0  0  0  0  0  0  0  0  0  0  0  0
    4.7779    2.3808    0.2451 N   0  0  0  0  0  0  0  0  0  0  0  0
    6.1382    2.6900    0.5269 C   0  0  0  0  0  0  0  0  0  0  0  0
    6.5880    4.0188    0.5817 C   0  0  0  0  0  0  0  0  0  0  0  0
    7.9188    4.2965    0.9125 C   0  0  0  0  0  0  0  0  0  0  0  0
    8.8063    3.2551    1.1755 C   0  0  0  0  0  0  0  0  0  0  0  0
    8.3607    1.9413    1.1015 C   0  0  0  0  0  0  0  0  0  0  0  0
    9.2171    0.9417    1.3489 F   0  0  0  0  0  0  0  0  0  0  0  0
    7.0404    1.6469    0.7823 C   0  0  0  0  0  0  0  0  0  0  0  0
    3.7689    3.2495   -0.1068 C   0  0  0  0  0  0  0  0  0  0  0  0
    2.6397    2.4887   -0.2367 C   0  0  0  0  0  0  0  0  0  0  0  0
    1.4312    2.9742   -0.5553 O   0  0  0  0  0  0  0  0  0  0  0  0
    3.5924   -0.9130    1.2152 H   0  0  0  0  0  0  0  0  0  0  0  0
    1.3198   -2.5302   -1.1129 H   0  0  0  0  0  0  0  0  0  0  0  0
   -0.3425   -4.2950   -1.6517 H   0  0  0  0  0  0  0  0  0  0  0  0
   -0.7455   -5.5277   -0.4902 H   0  0  0  0  0  0  0  0  0  0  0  0
    0.5890   -7.6268   -0.3327 H   0  0  0  0  0  0  0  0  0  0  0  0
    2.1556   -9.1701   -1.4535 H   0  0  0  0  0  0  0  0  0  0  0  0
    3.4963   -8.4006   -3.4020 H   0  0  0  0  0  0  0  0  0  0  0  0
    3.2619   -6.0708   -4.2116 H   0  0  0  0  0  0  0  0  0  0  0  0
    1.7057   -4.5108   -3.1034 H   0  0  0  0  0  0  0  0  0  0  0  0
    0.4917   -5.6593    1.7325 H   0  0  0  0  0  0  0  0  0  0  0  0
    1.8891   -4.4068    3.3625 H   0  0  0  0  0  0  0  0  0  0  0  0
    5.9281    4.8614    0.3986 H   0  0  0  0  0  0  0  0  0  0  0  0
    8.2613    5.3268    0.9730 H   0  0  0  0  0  0  0  0  0  0  0  0
    9.8395    3.4571    1.4399 H   0  0  0  0  0  0  0  0  0  0  0  0
    6.7389    0.6037    0.7400 H   0  0  0  0  0  0  0  0  0  0  0  0
    3.9349    4.3064   -0.2384 H   0  0  0  0  0  0  0  0  0  0  0  0
    1.4578    3.9376   -0.6796 H   0  0  0  0  0  0  0  0  0  0  0  0
  1  2  2  0  0  0  0
  2  3  1  0  0  0  0
  2 17  1  0  0  0  0
  3  4  1  0  0  0  0
  3 30  1  0  0  0  0
  4  5  2  0  0  0  0
  4 16  1  0  0  0  0
  5  6  1  0  0  0  0
  5 31  1  0  0  0  0
  6  7  1  0  0  0  0
  6 14  2  0  0  0  0
  7  8  1  0  0  0  0
  7 32  1  0  0  0  0
  7 33  1  0  0  0  0
  8  9  2  0  0  0  0
  8 13  1  0  0  0  0
  9 10  1  0  0  0  0
  9 34  1  0  0  0  0
 10 11  2  0  0  0  0
 10 35  1  0  0  0  0
 11 12  1  0  0  0  0
 11 36  1  0  0  0  0
 12 13  2  0  0  0  0
 12 37  1  0  0  0  0
 13 38  1  0  0  0  0
 14 15  1  0  0  0  0
 14 39  1  0  0  0  0
 15 16  2  0  0  0  0
 15 40  1  0  0  0  0
 17 18  2  0  0  0  0
 17 28  1  0  0  0  0
 18 19  1  0  0  0  0
 19 20  1  0  0  0  0
 19 27  1  0  0  0  0
 20 21  2  0  0  0  0
 20 26  1  0  0  0  0
 21 22  1  0  0  0  0
 21 41  1  0  0  0  0
 22 23  2  0  0  0  0
 22 42  1  0  0  0  0
 23 24  1  0  0  0  0
 23 43  1  0  0  0  0
 24 25  1  0  0  0  0
 24 26  2  0  0  0  0
 26 44  1  0  0  0  0
 27 28  2  0  0  0  0
 27 45  1  0  0  0  0
 28 29  1  0  0  0  0
 29 46  1  0  0  0  0
M  END
$$$$
