
 OpenBabel01122422383D

 46 49  0  0  1  0  0  0  0  0999 V2000
    2.6325   -5.1210    0.6940 F   0  0  0  0  0  0  0  0  0  0  0  0
    1.4238   -4.5560    0.5588 C   0  0  0  0  0  0  0  0  0  0  0  0
    0.6110   -4.9171   -0.5085 C   0  0  0  0  0  0  0  0  0  0  0  0
   -0.6530   -4.3326   -0.6483 C   0  0  0  0  0  0  0  0  0  0  0  0
   -1.0975   -3.3746    0.2845 C   0  0  0  0  0  0  0  0  0  0  0  0
   -2.3868   -2.7874    0.1301 N   0  0  0  0  0  0  0  0  0  0  0  0
   -2.9654   -1.7817    0.8730 C   0  0  0  0  0  0  0  0  0  0  0  0
   -4.2336   -1.5844    0.3843 C   0  0  0  0  0  0  0  0  0  0  0  0
   -4.3641   -2.5141   -0.6644 C   0  0  0  0  0  0  0  0  0  0  0  0
   -5.5838   -2.7595   -1.5041 C   0  0  0  0  0  0  0  0  0  0  0  0
   -5.5287   -1.8987   -2.6888 N   0  0  0  0  0  0  0  0  0  0  0  0
   -6.7009   -2.0496   -3.5683 C   0  0  3  0  0  0  0  0  0  0  0  0
   -6.5409   -1.0878   -4.7476 C   0  0  0  0  0  0  0  0  0  0  0  0
   -7.0781    0.2079   -4.6933 C   0  0  0  0  0  0  0  0  0  0  0  0
   -6.8554    1.1161   -5.7330 C   0  0  0  0  0  0  0  0  0  0  0  0
   -6.0829    0.7488   -6.8361 C   0  0  0  0  0  0  0  0  0  0  0  0
   -5.5258   -0.5331   -6.9132 C   0  0  0  0  0  0  0  0  0  0  0  0
   -4.6538   -0.9539   -8.0700 C   0  0  0  0  0  0  0  0  0  0  0  0
   -4.4202    0.0437   -8.9686 F   0  0  0  0  0  0  0  0  0  0  0  0
   -3.4269   -1.3869   -7.6688 F   0  0  0  0  0  0  0  0  0  0  0  0
   -5.1976   -1.9778   -8.7862 F   0  0  0  0  0  0  0  0  0  0  0  0
   -5.7666   -1.4400   -5.8690 C   0  0  0  0  0  0  0  0  0  0  0  0
   -6.9212   -3.4678   -4.0303 C   0  0  0  0  0  0  0  0  0  0  0  0
   -6.0086   -4.3935   -4.2614 N   0  0  0  0  0  0  0  0  0  0  0  0
   -6.6515   -5.5412   -4.6566 N   0  0  0  0  0  0  0  0  0  0  0  0
   -7.9385   -5.2891   -4.6708 C   0  0  0  0  0  0  0  0  0  0  0  0
   -8.1567   -4.0006   -4.2949 N   0  0  0  0  0  0  0  0  0  0  0  0
   -3.2362   -3.2186   -0.8429 N   0  0  0  0  0  0  0  0  0  0  0  0
   -0.2544   -3.0367    1.3495 C   0  0  0  0  0  0  0  0  0  0  0  0
   -0.6175   -2.1584    2.2939 F   0  0  0  0  0  0  0  0  0  0  0  0
    1.0006   -3.6223    1.4912 C   0  0  0  0  0  0  0  0  0  0  0  0
    0.9634   -5.6531   -1.2262 H   0  0  0  0  0  0  0  0  0  0  0  0
   -1.2765   -4.6280   -1.4905 H   0  0  0  0  0  0  0  0  0  0  0  0
   -2.4520   -1.2833    1.6782 H   0  0  0  0  0  0  0  0  0  0  0  0
   -4.9655   -0.8754    0.7396 H   0  0  0  0  0  0  0  0  0  0  0  0
   -6.4787   -2.5305   -0.9132 H   0  0  0  0  0  0  0  0  0  0  0  0
   -5.6183   -3.8230   -1.7628 H   0  0  0  0  0  0  0  0  0  0  0  0
   -4.7011   -2.1836   -3.2180 H   0  0  0  0  0  0  0  0  0  0  0  0
   -7.5924   -1.7410   -3.0048 H   0  0  0  0  0  0  0  0  0  0  0  0
   -7.6484    0.5336   -3.8254 H   0  0  0  0  0  0  0  0  0  0  0  0
   -7.2630    2.1232   -5.6715 H   0  0  0  0  0  0  0  0  0  0  0  0
   -5.8990    1.4761   -7.6258 H   0  0  0  0  0  0  0  0  0  0  0  0
   -5.3129   -2.4315   -5.9281 H   0  0  0  0  0  0  0  0  0  0  0  0
   -8.7219   -5.9838   -4.9376 H   0  0  0  0  0  0  0  0  0  0  0  0
   -9.0486   -3.5316   -4.2285 H   0  0  0  0  0  0  0  0  0  0  0  0
    1.6374   -3.3541    2.3260 H   0  0  0  0  0  0  0  0  0  0  0  0
  1  2  1  0  0  0  0
  2  3  2  0  0  0  0
  2 31  1  0  0  0  0
  3  4  1  0  0  0  0
  3 32  1  0  0  0  0
  4  5  2  0  0  0  0
  4 33  1  0  0  0  0
  5  6  1  0  0  0  0
  5 29  1  0  0  0  0
  6  7  1  0  0  0  0
  6 28  1  0  0  0  0
  7  8  2  0  0  0  0
  7 34  1  0  0  0  0
  8  9  1  0  0  0  0
  8 35  1  0  0  0  0
  9 10  1  0  0  0  0
  9 28  2  0  0  0  0
 10 11  1  0  0  0  0
 10 36  1  0  0  0  0
 10 37  1  0  0  0  0
 11 12  1  0  0  0  0
 11 38  1  0  0  0  0
 12 13  1  0  0  0  0
 12 23  1  0  0  0  0
 12 39  1  0  0  0  0
 13 14  2  0  0  0  0
 13 22  1  0  0  0  0
 14 15  1  0  0  0  0
 14 40  1  0  0  0  0
 15 16  2  0  0  0  0
 15 41  1  0  0  0  0
 16 17  1  0  0  0  0
 16 42  1  0  0  0  0
 17 18  1  0  0  0  0
 17 22  2  0  0  0  0
 18 19  1  0  0  0  0
 18 20  1  0  0  0  0
 18 21  1  0  0  0  0
 22 43  1  0  0  0  0
 23 24  2  0  0  0  0
 23 27  1  0  0  0  0
 24 25  1  0  0  0  0
 25 26  2  0  0  0  0
 26 27  1  0  0  0  0
 26 44  1  0  0  0  0
 27 45  1  0  0  0  0
 29 30  1  0  0  0  0
 29 31  2  0  0  0  0
 31 46  1  0  0  0  0
M  END
$$$$
