
 OpenBabel01122422383D

 43 46  0  0  0  0  0  0  0  0999 V2000
    0.9446    0.0682    0.0477 N   0  0  0  0  0  0  0  0  0  0  0  0
    2.2056    0.0682    0.0477 C   0  0  0  0  0  0  0  0  0  0  0  0
    3.7256    0.0682    0.0477 C   0  0  0  0  0  0  0  0  0  0  0  0
    4.3976    1.2347    0.2526 C   0  0  0  0  0  0  0  0  0  0  0  0
    3.7652    2.4901    0.4233 N   0  0  0  0  0  0  0  0  0  0  0  0
    4.3723    3.7269    0.6878 C   0  0  0  0  0  0  0  0  0  0  0  0
    5.5916    3.8590    0.8061 O   0  0  0  0  0  0  0  0  0  0  0  0
    3.5359    4.9101    0.8333 C   0  0  0  0  0  0  0  0  0  0  0  0
    3.9581    6.1837    1.1830 C   0  0  0  0  0  0  0  0  0  0  0  0
    2.8481    7.0387    1.0807 C   0  0  0  0  0  0  0  0  0  0  0  0
    1.7867    6.2559    0.6730 C   0  0  0  0  0  0  0  0  0  0  0  0
    0.4330    6.6212    0.2667 C   0  0  0  0  0  0  0  0  0  0  0  0
   -0.5785    5.6971    0.0590 C   0  0  0  0  0  0  0  0  0  0  0  0
   -1.7886    6.1448   -0.4658 C   0  0  0  0  0  0  0  0  0  0  0  0
   -1.9582    7.4954   -0.7569 C   0  0  0  0  0  0  0  0  0  0  0  0
   -0.9130    8.3562   -0.4791 C   0  0  0  0  0  0  0  0  0  0  0  0
    0.2713    7.9507    0.0294 N   0  0  0  0  0  0  0  0  0  0  0  0
    2.1874    4.9359    0.5596 O   0  0  0  0  0  0  0  0  0  0  0  0
    5.8472    1.1345    0.3227 C   0  0  0  0  0  0  0  0  0  0  0  0
    6.4794   -0.0382    0.2455 C   0  0  0  0  0  0  0  0  0  0  0  0
    5.7987   -1.2322    0.0997 N   0  0  0  0  0  0  0  0  0  0  0  0
    6.5091   -2.4645    0.0248 C   0  0  0  0  0  0  0  0  0  0  0  0
    7.6145   -2.5890   -0.8273 C   0  0  0  0  0  0  0  0  0  0  0  0
    8.2511   -3.8199   -0.9704 C   0  0  0  0  0  0  0  0  0  0  0  0
    7.8198   -4.9199   -0.2297 C   0  0  0  0  0  0  0  0  0  0  0  0
    6.7537   -4.7902    0.6580 C   0  0  0  0  0  0  0  0  0  0  0  0
    6.0935   -3.5691    0.7771 C   0  0  0  0  0  0  0  0  0  0  0  0
    4.4013   -1.2535   -0.0208 C   0  0  0  0  0  0  0  0  0  0  0  0
    3.7158   -2.2606   -0.1982 O   0  0  0  0  0  0  0  0  0  0  0  0
    2.7485    2.5361    0.3823 H   0  0  0  0  0  0  0  0  0  0  0  0
    4.9767    6.4581    1.4270 H   0  0  0  0  0  0  0  0  0  0  0  0
    2.8204    8.1120    1.2193 H   0  0  0  0  0  0  0  0  0  0  0  0
   -0.4287    4.6459    0.2797 H   0  0  0  0  0  0  0  0  0  0  0  0
   -2.5929    5.4388   -0.6655 H   0  0  0  0  0  0  0  0  0  0  0  0
   -2.8794    7.8659   -1.1918 H   0  0  0  0  0  0  0  0  0  0  0  0
   -0.9958    9.4213   -0.6769 H   0  0  0  0  0  0  0  0  0  0  0  0
    6.4758    2.0022    0.4625 H   0  0  0  0  0  0  0  0  0  0  0  0
    7.5614   -0.0829    0.3454 H   0  0  0  0  0  0  0  0  0  0  0  0
    7.9406   -1.7517   -1.4398 H   0  0  0  0  0  0  0  0  0  0  0  0
    9.0691   -3.9270   -1.6779 H   0  0  0  0  0  0  0  0  0  0  0  0
    8.3078   -5.8824   -0.3519 H   0  0  0  0  0  0  0  0  0  0  0  0
    6.4215   -5.6424    1.2453 H   0  0  0  0  0  0  0  0  0  0  0  0
    5.2604   -3.4856    1.4714 H   0  0  0  0  0  0  0  0  0  0  0  0
  1  2  3  0  0  0  0
  2  3  1  0  0  0  0
  3  4  2  0  0  0  0
  3 28  1  0  0  0  0
  4  5  1  0  0  0  0
  4 19  1  0  0  0  0
  5  6  1  0  0  0  0
  5 30  1  0  0  0  0
  6  7  2  0  0  0  0
  6  8  1  0  0  0  0
  8  9  2  0  0  0  0
  8 18  1  0  0  0  0
  9 10  1  0  0  0  0
  9 31  1  0  0  0  0
 10 11  2  0  0  0  0
 10 32  1  0  0  0  0
 11 12  1  0  0  0  0
 11 18  1  0  0  0  0
 12 13  2  0  0  0  0
 12 17  1  0  0  0  0
 13 14  1  0  0  0  0
 13 33  1  0  0  0  0
 14 15  2  0  0  0  0
 14 34  1  0  0  0  0
 15 16  1  0  0  0  0
 15 35  1  0  0  0  0
 16 17  2  0  0  0  0
 16 36  1  0  0  0  0
 19 20  2  0  0  0  0
 19 37  1  0  0  0  0
 20 21  1  0  0  0  0
 20 38  1  0  0  0  0
 21 22  1  0  0  0  0
 21 28  1  0  0  0  0
 22 23  2  0  0  0  0
 22 27  1  0  0  0  0
 23 24  1  0  0  0  0
 23 39  1  0  0  0  0
 24 25  2  0  0  0  0
 24 40  1  0  0  0  0
 25 26  1  0  0  0  0
 25 41  1  0  0  0  0
 26 27  2  0  0  0  0
 26 42  1  0  0  0  0
 27 43  1  0  0  0  0
 28 29  2  0  0  0  0
M  END
$$$$
