
 OpenBabel01122422383D

 51 54  0  0  1  0  0  0  0  0999 V2000
    3.2589    4.1301    1.3798 O   0  0  0  0  0  0  0  0  0  0  0  0
    2.0750    3.8313    1.2343 C   0  0  0  0  0  0  0  0  0  0  0  0
    1.6046    3.0697    0.1941 N   0  0  0  0  0  0  0  0  0  0  0  0
    2.4600    2.5112   -0.8458 C   0  0  2  0  0  0  0  0  0  0  0  0
    3.3222    1.3709   -0.2917 C   0  0  0  0  0  0  0  0  0  0  0  0
    4.6727    1.5577    0.0576 C   0  0  0  0  0  0  0  0  0  0  0  0
    5.4682    0.4918    0.4723 C   0  0  0  0  0  0  0  0  0  0  0  0
    4.9209   -0.7768    0.5829 C   0  0  0  0  0  0  0  0  0  0  0  0
    3.5723   -0.9788    0.2901 C   0  0  0  0  0  0  0  0  0  0  0  0
    2.7775    0.0854   -0.1424 C   0  0  0  0  0  0  0  0  0  0  0  0
    3.2954    3.5583   -1.6704 C   0  0  1  0  0  0  0  0  0  0  0  0
    3.9390    2.8799   -2.7709 O   0  0  0  0  0  0  0  0  0  0  0  0
    2.5289    4.7403   -2.2349 C   0  0  0  0  0  0  0  0  0  0  0  0
    2.9193    6.0448   -1.8849 C   0  0  0  0  0  0  0  0  0  0  0  0
    2.3352    7.1512   -2.5004 C   0  0  0  0  0  0  0  0  0  0  0  0
    1.3565    6.9670   -3.4734 C   0  0  0  0  0  0  0  0  0  0  0  0
    0.9395    5.6800   -3.8090 C   0  0  0  0  0  0  0  0  0  0  0  0
    1.5124    4.5713   -3.1852 C   0  0  0  0  0  0  0  0  0  0  0  0
    1.0339    4.3179    2.1527 C   0  0  0  0  0  0  0  0  0  0  0  0
   -0.2848    4.1087    1.9566 N   0  0  0  0  0  0  0  0  0  0  0  0
   -0.8994    4.8751    2.9048 N   0  0  0  0  0  0  0  0  0  0  0  0
   -2.3103    5.0728    2.8984 C   0  0  0  0  0  0  0  0  0  0  0  0
   -3.1104    4.3792    1.9768 C   0  0  0  0  0  0  0  0  0  0  0  0
   -4.4890    4.6134    1.9236 C   0  0  0  0  0  0  0  0  0  0  0  0
   -5.0610    5.5441    2.7849 C   0  0  0  0  0  0  0  0  0  0  0  0
   -6.3944    5.8235    2.7517 O   0  0  0  0  0  0  0  0  0  0  0  0
   -4.2842    6.2291    3.7094 C   0  0  0  0  0  0  0  0  0  0  0  0
   -2.9098    5.9913    3.7747 C   0  0  0  0  0  0  0  0  0  0  0  0
    0.0162    5.4410    3.7637 C   0  0  0  0  0  0  0  0  0  0  0  0
    1.2620    5.0944    3.3108 C   0  0  0  0  0  0  0  0  0  0  0  0
    0.6011    2.9195    0.1753 H   0  0  0  0  0  0  0  0  0  0  0  0
    1.7668    2.0452   -1.5594 H   0  0  0  0  0  0  0  0  0  0  0  0
    5.1402    2.5363   -0.0024 H   0  0  0  0  0  0  0  0  0  0  0  0
    6.5201    0.6656    0.6945 H   0  0  0  0  0  0  0  0  0  0  0  0
    5.5454   -1.6084    0.8967 H   0  0  0  0  0  0  0  0  0  0  0  0
    3.1408   -1.9719    0.3885 H   0  0  0  0  0  0  0  0  0  0  0  0
    1.7329   -0.0994   -0.3803 H   0  0  0  0  0  0  0  0  0  0  0  0
    4.1047    3.9638   -1.0567 H   0  0  0  0  0  0  0  0  0  0  0  0
    3.5334    3.1734   -3.6019 H   0  0  0  0  0  0  0  0  0  0  0  0
    3.7045    6.2062   -1.1468 H   0  0  0  0  0  0  0  0  0  0  0  0
    2.6609    8.1541   -2.2357 H   0  0  0  0  0  0  0  0  0  0  0  0
    0.9235    7.8275   -3.9762 H   0  0  0  0  0  0  0  0  0  0  0  0
    0.1814    5.5384   -4.5744 H   0  0  0  0  0  0  0  0  0  0  0  0
    1.1921    3.5751   -3.4797 H   0  0  0  0  0  0  0  0  0  0  0  0
   -2.6741    3.6568    1.2898 H   0  0  0  0  0  0  0  0  0  0  0  0
   -5.0922    4.0695    1.2036 H   0  0  0  0  0  0  0  0  0  0  0  0
   -6.8040    5.3034    2.0414 H   0  0  0  0  0  0  0  0  0  0  0  0
   -4.7442    6.9577    4.3718 H   0  0  0  0  0  0  0  0  0  0  0  0
   -2.3395    6.5599    4.5020 H   0  0  0  0  0  0  0  0  0  0  0  0
   -0.2737    6.0662    4.5936 H   0  0  0  0  0  0  0  0  0  0  0  0
    2.2171    5.3984    3.7170 H   0  0  0  0  0  0  0  0  0  0  0  0
  1  2  2  0  0  0  0
  2  3  1  0  0  0  0
  2 19  1  0  0  0  0
  3 31  1  0  0  0  0
  4 11  1  0  0  0  0
  4  5  1  0  0  0  0
  4  3  1  0  0  0  0
  4 32  1  6  0  0  0
  5  6  2  0  0  0  0
  5 10  1  0  0  0  0
  6  7  1  0  0  0  0
  6 33  1  0  0  0  0
  7  8  2  0  0  0  0
  7 34  1  0  0  0  0
  8  9  1  0  0  0  0
  8 35  1  0  0  0  0
  9 10  2  0  0  0  0
  9 36  1  0  0  0  0
 10 37  1  0  0  0  0
 11 12  1  0  0  0  0
 11 13  1  0  0  0  0
 11 38  1  1  0  0  0
 12 39  1  0  0  0  0
 13 14  2  0  0  0  0
 13 18  1  0  0  0  0
 14 15  1  0  0  0  0
 14 40  1  0  0  0  0
 15 16  2  0  0  0  0
 15 41  1  0  0  0  0
 16 17  1  0  0  0  0
 16 42  1  0  0  0  0
 17 18  2  0  0  0  0
 17 43  1  0  0  0  0
 18 44  1  0  0  0  0
 19 20  2  0  0  0  0
 19 30  1  0  0  0  0
 20 21  1  0  0  0  0
 21 22  1  0  0  0  0
 21 29  1  0  0  0  0
 22 23  2  0  0  0  0
 22 28  1  0  0  0  0
 23 24  1  0  0  0  0
 23 45  1  0  0  0  0
 24 25  2  0  0  0  0
 24 46  1  0  0  0  0
 25 26  1  0  0  0  0
 25 27  1  0  0  0  0
 26 47  1  0  0  0  0
 27 28  2  0  0  0  0
 27 48  1  0  0  0  0
 28 49  1  0  0  0  0
 29 30  2  0  0  0  0
 29 50  1  0  0  0  0
 30 51  1  0  0  0  0
M  END
$$$$
