
 OpenBabel01122422383D

 57 60  0  0  1  0  0  0  0  0999 V2000
    2.1773   -0.8052   -0.8112 C   0  0  0  0  0  0  0  0  0  0  0  0
    2.1338    0.2673    0.1209 O   0  0  0  0  0  0  0  0  0  0  0  0
    2.9972    0.2053    1.1802 C   0  0  0  0  0  0  0  0  0  0  0  0
    3.8643   -0.8450    1.4742 C   0  0  0  0  0  0  0  0  0  0  0  0
    4.6882   -0.7780    2.6061 C   0  0  0  0  0  0  0  0  0  0  0  0
    4.6470    0.3287    3.4759 C   0  0  0  0  0  0  0  0  0  0  0  0
    5.4750    0.3076    4.7740 C   0  0  3  0  0  0  0  0  0  0  0  0
    5.7707    1.6616    5.2269 N   0  0  0  0  0  0  0  0  0  0  0  0
    6.8593    2.3827    4.7679 C   0  0  0  0  0  0  0  0  0  0  0  0
    7.6918    1.9389    3.9923 O   0  0  0  0  0  0  0  0  0  0  0  0
    6.9915    3.7569    5.3135 C   0  0  0  0  0  0  0  0  0  0  0  0
    5.8618    4.5257    5.5938 C   0  0  0  0  0  0  0  0  0  0  0  0
    6.0503    5.8017    6.0853 C   0  0  0  0  0  0  0  0  0  0  0  0
    7.2628    6.3431    6.3201 N   0  0  0  0  0  0  0  0  0  0  0  0
    8.3583    5.5882    6.0359 C   0  0  0  0  0  0  0  0  0  0  0  0
    9.6576    6.2072    6.3358 C   0  0  0  0  0  0  0  0  0  0  0  0
   10.8350    5.5690    6.1601 N   0  0  0  0  0  0  0  0  0  0  0  0
   11.7610    6.4495    6.5602 N   0  0  0  0  0  0  0  0  0  0  0  0
   11.2476    7.6331    6.9941 C   0  0  0  0  0  0  0  0  0  0  0  0
    9.8854    7.5127    6.8574 C   0  0  0  0  0  0  0  0  0  0  0  0
    8.2621    4.2987    5.5190 C   0  0  0  0  0  0  0  0  0  0  0  0
    4.8563   -0.5252    5.9118 C   0  0  0  0  0  0  0  0  0  0  0  0
    3.6145   -1.1749    5.7194 C   0  0  0  0  0  0  0  0  0  0  0  0
    2.9945   -1.9442    6.7090 C   0  0  0  0  0  0  0  0  0  0  0  0
    3.5961   -2.0953    7.9473 C   0  0  0  0  0  0  0  0  0  0  0  0
    3.0834   -2.8038    8.9971 O   0  0  0  0  0  0  0  0  0  0  0  0
    1.8457   -3.4759    8.7749 C   0  0  0  0  0  0  0  0  0  0  0  0
    4.8180   -1.4560    8.1759 C   0  0  0  0  0  0  0  0  0  0  0  0
    5.4554   -0.6871    7.1783 C   0  0  0  0  0  0  0  0  0  0  0  0
    6.5387    0.0164    7.6400 O   0  0  0  0  0  0  0  0  0  0  0  0
    7.7753   -0.1416    6.9517 C   0  0  0  0  0  0  0  0  0  0  0  0
    3.7688    1.3770    3.1651 C   0  0  0  0  0  0  0  0  0  0  0  0
    2.9597    1.3142    2.0271 C   0  0  0  0  0  0  0  0  0  0  0  0
    1.4588   -0.5847   -1.6069 H   0  0  0  0  0  0  0  0  0  0  0  0
    1.8749   -1.7476   -0.3429 H   0  0  0  0  0  0  0  0  0  0  0  0
    3.1673   -0.8908   -1.2711 H   0  0  0  0  0  0  0  0  0  0  0  0
    3.9160   -1.7342    0.8554 H   0  0  0  0  0  0  0  0  0  0  0  0
    5.3400   -1.6231    2.8284 H   0  0  0  0  0  0  0  0  0  0  0  0
    6.4158   -0.1649    4.4871 H   0  0  0  0  0  0  0  0  0  0  0  0
    5.2897    1.9734    6.0603 H   0  0  0  0  0  0  0  0  0  0  0  0
    4.8586    4.1593    5.4092 H   0  0  0  0  0  0  0  0  0  0  0  0
    5.2048    6.4468    6.3081 H   0  0  0  0  0  0  0  0  0  0  0  0
   12.7373    6.1737    6.5135 H   0  0  0  0  0  0  0  0  0  0  0  0
   11.8777    8.4335    7.3531 H   0  0  0  0  0  0  0  0  0  0  0  0
    9.1389    8.2555    7.1048 H   0  0  0  0  0  0  0  0  0  0  0  0
    9.1571    3.7261    5.2906 H   0  0  0  0  0  0  0  0  0  0  0  0
    3.0671   -1.0821    4.7815 H   0  0  0  0  0  0  0  0  0  0  0  0
    2.0343   -2.3932    6.4727 H   0  0  0  0  0  0  0  0  0  0  0  0
    1.5749   -4.0047    9.6940 H   0  0  0  0  0  0  0  0  0  0  0  0
    1.9379   -4.2226    7.9781 H   0  0  0  0  0  0  0  0  0  0  0  0
    1.0413   -2.7646    8.5545 H   0  0  0  0  0  0  0  0  0  0  0  0
    5.2762   -1.5397    9.1610 H   0  0  0  0  0  0  0  0  0  0  0  0
    8.2177    0.8539    6.8432 H   0  0  0  0  0  0  0  0  0  0  0  0
    7.7007   -0.6126    5.9720 H   0  0  0  0  0  0  0  0  0  0  0  0
    8.4575   -0.7405    7.5615 H   0  0  0  0  0  0  0  0  0  0  0  0
    3.6937    2.2476    3.8100 H   0  0  0  0  0  0  0  0  0  0  0  0
    2.2852    2.1366    1.8034 H   0  0  0  0  0  0  0  0  0  0  0  0
  1  2  1  0  0  0  0
  1 34  1  0  0  0  0
  1 35  1  0  0  0  0
  1 36  1  0  0  0  0
  2  3  1  0  0  0  0
  3  4  2  0  0  0  0
  3 33  1  0  0  0  0
  4  5  1  0  0  0  0
  4 37  1  0  0  0  0
  5  6  2  0  0  0  0
  5 38  1  0  0  0  0
  6  7  1  0  0  0  0
  6 32  1  0  0  0  0
  7  8  1  0  0  0  0
  7 22  1  0  0  0  0
  7 39  1  0  0  0  0
  8  9  1  0  0  0  0
  8 40  1  0  0  0  0
  9 10  2  0  0  0  0
  9 11  1  0  0  0  0
 11 12  2  0  0  0  0
 11 21  1  0  0  0  0
 12 13  1  0  0  0  0
 12 41  1  0  0  0  0
 13 14  2  0  0  0  0
 13 42  1  0  0  0  0
 14 15  1  0  0  0  0
 15 16  1  0  0  0  0
 15 21  2  0  0  0  0
 16 17  2  0  0  0  0
 16 20  1  0  0  0  0
 17 18  1  0  0  0  0
 18 19  1  0  0  0  0
 18 43  1  0  0  0  0
 19 20  2  0  0  0  0
 19 44  1  0  0  0  0
 20 45  1  0  0  0  0
 21 46  1  0  0  0  0
 22 23  2  0  0  0  0
 22 29  1  0  0  0  0
 23 24  1  0  0  0  0
 23 47  1  0  0  0  0
 24 25  2  0  0  0  0
 24 48  1  0  0  0  0
 25 26  1  0  0  0  0
 25 28  1  0  0  0  0
 26 27  1  0  0  0  0
 27 49  1  0  0  0  0
 27 50  1  0  0  0  0
 27 51  1  0  0  0  0
 28 29  2  0  0  0  0
 28 52  1  0  0  0  0
 29 30  1  0  0  0  0
 30 31  1  0  0  0  0
 31 53  1  0  0  0  0
 31 54  1  0  0  0  0
 31 55  1  0  0  0  0
 32 33  2  0  0  0  0
 32 56  1  0  0  0  0
 33 57  1  0  0  0  0
M  END
$$$$
