
 OpenBabel01122422383D

 45 48  0  0  0  0  0  0  0  0999 V2000
    1.0785    0.3816    0.6849 C   0  0  0  0  0  0  0  0  0  0  0  0
    2.3940    0.0844    0.1956 O   0  0  0  0  0  0  0  0  0  0  0  0
    3.0308    1.1720   -0.3443 C   0  0  0  0  0  0  0  0  0  0  0  0
    2.6745    2.4227    0.1910 C   0  0  0  0  0  0  0  0  0  0  0  0
    3.3927    3.5616   -0.1093 C   0  0  0  0  0  0  0  0  0  0  0  0
    4.5165    3.4888   -0.9358 C   0  0  0  0  0  0  0  0  0  0  0  0
    5.2636    4.7274   -1.2182 C   0  0  0  0  0  0  0  0  0  0  0  0
    5.9556    4.9325   -2.4199 C   0  0  0  0  0  0  0  0  0  0  0  0
    6.7104    6.0895   -2.6176 C   0  0  0  0  0  0  0  0  0  0  0  0
    6.7547    7.0232   -1.5980 C   0  0  0  0  0  0  0  0  0  0  0  0
    6.1137    6.8726   -0.4203 N   0  0  0  0  0  0  0  0  0  0  0  0
    5.3948    5.7355   -0.2595 C   0  0  0  0  0  0  0  0  0  0  0  0
    4.8653    2.2251   -1.4873 C   0  0  0  0  0  0  0  0  0  0  0  0
    4.1238    1.0468   -1.2456 C   0  0  0  0  0  0  0  0  0  0  0  0
    4.5016   -0.1668   -1.9533 N   0  0  0  0  0  0  0  0  0  0  0  0
    5.7498   -0.3974   -2.5643 C   0  0  0  0  0  0  0  0  0  0  0  0
    6.7064    0.3642   -2.5846 O   0  0  0  0  0  0  0  0  0  0  0  0
    6.0783   -1.7291   -3.1506 C   0  0  0  0  0  0  0  0  0  0  0  0
    6.9563   -1.9452   -4.2433 C   0  0  0  0  0  0  0  0  0  0  0  0
    7.3088   -3.2662   -4.5730 C   0  0  0  0  0  0  0  0  0  0  0  0
    6.7627   -4.3336   -3.8300 C   0  0  0  0  0  0  0  0  0  0  0  0
    6.9589   -5.6134   -4.3494 N   0  0  0  0  0  0  0  0  0  0  0  0
    7.4309   -5.6262   -5.6347 C   0  0  0  0  0  0  0  0  0  0  0  0
    6.8362   -6.0183   -6.6295 O   0  0  0  0  0  0  0  0  0  0  0  0
    8.8110   -4.9231   -5.7090 C   0  0  0  0  0  0  0  0  0  0  0  0
    8.3640   -3.6669   -5.5595 C   0  0  0  0  0  0  0  0  0  0  0  0
    6.0206   -4.1177   -2.6910 C   0  0  0  0  0  0  0  0  0  0  0  0
    5.6326   -5.1398   -1.9154 F   0  0  0  0  0  0  0  0  0  0  0  0
    5.6587   -2.8222   -2.3722 C   0  0  0  0  0  0  0  0  0  0  0  0
    0.5574   -0.5629    0.8253 H   0  0  0  0  0  0  0  0  0  0  0  0
    0.5043    0.9894   -0.0287 H   0  0  0  0  0  0  0  0  0  0  0  0
    1.1222    0.8816    1.6603 H   0  0  0  0  0  0  0  0  0  0  0  0
    1.8434    2.5064    0.8879 H   0  0  0  0  0  0  0  0  0  0  0  0
    3.0766    4.5098    0.3244 H   0  0  0  0  0  0  0  0  0  0  0  0
    5.9273    4.1834   -3.2094 H   0  0  0  0  0  0  0  0  0  0  0  0
    7.2555    6.2550   -3.5410 H   0  0  0  0  0  0  0  0  0  0  0  0
    7.3272    7.9410   -1.7013 H   0  0  0  0  0  0  0  0  0  0  0  0
    4.9345    5.6340    0.7209 H   0  0  0  0  0  0  0  0  0  0  0  0
    5.7530    2.1794   -2.1193 H   0  0  0  0  0  0  0  0  0  0  0  0
    3.8761   -0.9522   -1.8573 H   0  0  0  0  0  0  0  0  0  0  0  0
    7.4062   -1.1134   -4.7776 H   0  0  0  0  0  0  0  0  0  0  0  0
    6.7483   -6.4573   -3.8353 H   0  0  0  0  0  0  0  0  0  0  0  0
    9.1323   -5.9502   -5.7901 H   0  0  0  0  0  0  0  0  0  0  0  0
    8.9808   -2.8754   -5.9721 H   0  0  0  0  0  0  0  0  0  0  0  0
    5.0589   -2.6666   -1.4803 H   0  0  0  0  0  0  0  0  0  0  0  0
  1  2  1  0  0  0  0
  1 30  1  0  0  0  0
  1 31  1  0  0  0  0
  1 32  1  0  0  0  0
  2  3  1  0  0  0  0
  3  4  2  0  0  0  0
  3 14  1  0  0  0  0
  4  5  1  0  0  0  0
  4 33  1  0  0  0  0
  5  6  2  0  0  0  0
  5 34  1  0  0  0  0
  6  7  1  0  0  0  0
  6 13  1  0  0  0  0
  7  8  2  0  0  0  0
  7 12  1  0  0  0  0
  8  9  1  0  0  0  0
  8 35  1  0  0  0  0
  9 10  2  0  0  0  0
  9 36  1  0  0  0  0
 10 11  1  0  0  0  0
 10 37  1  0  0  0  0
 11 12  2  0  0  0  0
 12 38  1  0  0  0  0
 13 14  2  0  0  0  0
 13 39  1  0  0  0  0
 14 15  1  0  0  0  0
 15 16  1  0  0  0  0
 15 40  1  0  0  0  0
 16 17  2  0  0  0  0
 16 18  1  0  0  0  0
 18 19  2  0  0  0  0
 18 29  1  0  0  0  0
 19 20  1  0  0  0  0
 19 41  1  0  0  0  0
 20 21  2  0  0  0  0
 20 26  1  0  0  0  0
 21 22  1  0  0  0  0
 21 27  1  0  0  0  0
 22 23  1  0  0  0  0
 22 42  1  0  0  0  0
 23 24  2  0  0  0  0
 23 25  1  0  0  0  0
 25 26  2  0  0  0  0
 25 43  1  0  0  0  0
 26 44  1  0  0  0  0
 27 28  1  0  0  0  0
 27 29  2  0  0  0  0
 29 45  1  0  0  0  0
M  END
$$$$
