
 OpenBabel01122422383D

 40 43  0  0  0  0  0  0  0  0999 V2000
    1.1706   -0.1550    0.5974 O   0  0  0  0  0  0  0  0  0  0  0  0
    2.2904    0.0091    0.1278 C   0  0  0  0  0  0  0  0  0  0  0  0
    2.8531    1.2021   -0.2882 N   0  0  0  0  0  0  0  0  0  0  0  0
    2.2541    2.4758   -0.1572 C   0  0  0  0  0  0  0  0  0  0  0  0
    1.1689    2.7182    0.6923 C   0  0  0  0  0  0  0  0  0  0  0  0
    0.5917    3.9944    0.8418 C   0  0  0  0  0  0  0  0  0  0  0  0
   -0.4884    4.2247    1.8337 C   0  0  0  0  0  0  0  0  0  0  0  0
   -0.5087    3.5083    3.0522 C   0  0  0  0  0  0  0  0  0  0  0  0
   -1.4927    3.7311    4.0186 C   0  0  0  0  0  0  0  0  0  0  0  0
   -2.4716    4.6845    3.7874 C   0  0  0  0  0  0  0  0  0  0  0  0
   -3.4017    4.9151    4.7222 F   0  0  0  0  0  0  0  0  0  0  0  0
   -2.4957    5.4040    2.6037 C   0  0  0  0  0  0  0  0  0  0  0  0
   -1.5170    5.1651    1.6397 C   0  0  0  0  0  0  0  0  0  0  0  0
   -1.5916    5.8704    0.5000 F   0  0  0  0  0  0  0  0  0  0  0  0
    1.1211    5.0260    0.0514 C   0  0  0  0  0  0  0  0  0  0  0  0
    2.2034    4.8019   -0.8058 C   0  0  0  0  0  0  0  0  0  0  0  0
    2.7850    3.5367   -0.8904 C   0  0  0  0  0  0  0  0  0  0  0  0
    3.1109   -1.2001   -0.0648 C   0  0  0  0  0  0  0  0  0  0  0  0
    2.4632   -2.3888   -0.3917 C   0  0  0  0  0  0  0  0  0  0  0  0
    3.0942   -3.5788   -0.5463 N   0  0  0  0  0  0  0  0  0  0  0  0
    4.4249   -3.5958   -0.3319 C   0  0  0  0  0  0  0  0  0  0  0  0
    5.0199   -4.8545   -0.4691 N   0  0  0  0  0  0  0  0  0  0  0  0
    6.2801   -4.9372   -0.2374 C   0  0  0  0  0  0  0  0  0  0  0  0
    7.0669   -3.8797    0.1201 N   0  0  0  0  0  0  0  0  0  0  0  0
    6.5747   -2.6064    0.2546 C   0  0  0  0  0  0  0  0  0  0  0  0
    7.2812   -1.6519    0.5519 O   0  0  0  0  0  0  0  0  0  0  0  0
    5.1388   -2.4540    0.0142 C   0  0  0  0  0  0  0  0  0  0  0  0
    4.4861   -1.2282    0.1471 C   0  0  0  0  0  0  0  0  0  0  0  0
    3.7034    1.1644   -0.8363 H   0  0  0  0  0  0  0  0  0  0  0  0
    0.7602    1.9032    1.2803 H   0  0  0  0  0  0  0  0  0  0  0  0
    0.2596    2.7695    3.2754 H   0  0  0  0  0  0  0  0  0  0  0  0
   -1.4912    3.1696    4.9482 H   0  0  0  0  0  0  0  0  0  0  0  0
   -3.2648    6.1465    2.4293 H   0  0  0  0  0  0  0  0  0  0  0  0
    0.7097    6.0319    0.1057 H   0  0  0  0  0  0  0  0  0  0  0  0
    2.5942    5.6230   -1.4023 H   0  0  0  0  0  0  0  0  0  0  0  0
    3.6331    3.3947   -1.5542 H   0  0  0  0  0  0  0  0  0  0  0  0
    1.3848   -2.4221   -0.5388 H   0  0  0  0  0  0  0  0  0  0  0  0
    6.8251   -5.8951   -0.3170 H   0  0  0  0  0  0  0  0  0  0  0  0
    8.0556   -4.0036    0.2886 H   0  0  0  0  0  0  0  0  0  0  0  0
    5.0375   -0.3452    0.4565 H   0  0  0  0  0  0  0  0  0  0  0  0
  1  2  2  0  0  0  0
  2  3  1  0  0  0  0
  2 18  1  0  0  0  0
  3  4  1  0  0  0  0
  3 29  1  0  0  0  0
  4  5  2  0  0  0  0
  4 17  1  0  0  0  0
  5  6  1  0  0  0  0
  5 30  1  0  0  0  0
  6  7  1  0  0  0  0
  6 15  2  0  0  0  0
  7  8  2  0  0  0  0
  7 13  1  0  0  0  0
  8  9  1  0  0  0  0
  8 31  1  0  0  0  0
  9 10  2  0  0  0  0
  9 32  1  0  0  0  0
 10 11  1  0  0  0  0
 10 12  1  0  0  0  0
 12 13  2  0  0  0  0
 12 33  1  0  0  0  0
 13 14  1  0  0  0  0
 15 16  1  0  0  0  0
 15 34  1  0  0  0  0
 16 17  2  0  0  0  0
 16 35  1  0  0  0  0
 17 36  1  0  0  0  0
 18 19  2  0  0  0  0
 18 28  1  0  0  0  0
 19 20  1  0  0  0  0
 19 37  1  0  0  0  0
 20 21  2  0  0  0  0
 21 22  1  0  0  0  0
 21 27  1  0  0  0  0
 22 23  2  0  0  0  0
 23 24  1  0  0  0  0
 23 38  1  0  0  0  0
 24 25  1  0  0  0  0
 24 39  1  0  0  0  0
 25 26  2  0  0  0  0
 25 27  1  0  0  0  0
 27 28  2  0  0  0  0
 28 40  1  0  0  0  0
M  END
$$$$
