
 OpenBabel01122422383D

 41 44  0  0  0  0  0  0  0  0999 V2000
    3.2959   -1.1883   -2.6700 N   0  0  0  0  0  0  0  0  0  0  0  0
    2.4747   -0.6115   -2.0808 C   0  0  0  0  0  0  0  0  0  0  0  0
    1.4467    0.0719   -1.3554 C   0  0  0  0  0  0  0  0  0  0  0  0
    1.7131    1.3028   -0.7377 C   0  0  0  0  0  0  0  0  0  0  0  0
    0.7106    2.0119   -0.0425 C   0  0  0  0  0  0  0  0  0  0  0  0
    0.9802    3.3528    0.5129 C   0  0  0  0  0  0  0  0  0  0  0  0
    0.3614    3.8520    1.6534 C   0  0  0  0  0  0  0  0  0  0  0  0
    0.6254    5.1617    2.0402 C   0  0  0  0  0  0  0  0  0  0  0  0
    1.5020    5.9370    1.2824 C   0  0  0  0  0  0  0  0  0  0  0  0
    2.0996    5.3744    0.1626 C   0  0  0  0  0  0  0  0  0  0  0  0
    2.9881    6.1734   -0.5840 N   0  0  0  0  0  0  0  0  0  0  0  0
    3.6653    5.7336   -1.7072 C   0  0  0  0  0  0  0  0  0  0  0  0
    3.5670    4.6299   -2.2381 O   0  0  0  0  0  0  0  0  0  0  0  0
    4.6564    6.6786   -2.3077 C   0  0  0  0  0  0  0  0  0  0  0  0
    5.7465    6.1108   -2.9965 C   0  0  0  0  0  0  0  0  0  0  0  0
    6.7312    6.9111   -3.5819 C   0  0  0  0  0  0  0  0  0  0  0  0
    6.6166    8.2937   -3.4839 C   0  0  0  0  0  0  0  0  0  0  0  0
    7.6291    9.1736   -4.0640 C   0  0  0  0  0  0  0  0  0  0  0  0
    7.5673   10.4682   -4.0275 N   0  0  0  0  0  0  0  0  0  0  0  0
    6.4865   11.0277   -3.4071 N   0  0  0  0  0  0  0  0  0  0  0  0
    5.4588   10.3458   -2.7926 C   0  0  0  0  0  0  0  0  0  0  0  0
    4.5246   10.9088   -2.2333 O   0  0  0  0  0  0  0  0  0  0  0  0
    5.5343    8.8743   -2.8322 C   0  0  0  0  0  0  0  0  0  0  0  0
    4.5438    8.0742   -2.2388 C   0  0  0  0  0  0  0  0  0  0  0  0
    1.8484    4.1055   -0.2050 N   0  0  0  0  0  0  0  0  0  0  0  0
   -0.5634    1.4255    0.0313 C   0  0  0  0  0  0  0  0  0  0  0  0
   -0.8206    0.2025   -0.5827 C   0  0  0  0  0  0  0  0  0  0  0  0
   -2.0543   -0.3147   -0.5175 F   0  0  0  0  0  0  0  0  0  0  0  0
    0.1674   -0.4784   -1.2787 C   0  0  0  0  0  0  0  0  0  0  0  0
    2.7115    1.7384   -0.8197 H   0  0  0  0  0  0  0  0  0  0  0  0
   -0.3205    3.2434    2.2384 H   0  0  0  0  0  0  0  0  0  0  0  0
    0.1434    5.5773    2.9211 H   0  0  0  0  0  0  0  0  0  0  0  0
    1.6985    6.9612    1.5783 H   0  0  0  0  0  0  0  0  0  0  0  0
    3.1685    7.0967   -0.2270 H   0  0  0  0  0  0  0  0  0  0  0  0
    5.8281    5.0264   -3.0786 H   0  0  0  0  0  0  0  0  0  0  0  0
    7.5632    6.4461   -4.1044 H   0  0  0  0  0  0  0  0  0  0  0  0
    8.4978    8.7060   -4.5580 H   0  0  0  0  0  0  0  0  0  0  0  0
    6.4542   12.0426   -3.3944 H   0  0  0  0  0  0  0  0  0  0  0  0
    3.6925    8.5551   -1.7655 H   0  0  0  0  0  0  0  0  0  0  0  0
   -1.3888    1.9284    0.5271 H   0  0  0  0  0  0  0  0  0  0  0  0
   -0.0757   -1.4200   -1.7633 H   0  0  0  0  0  0  0  0  0  0  0  0
  1  2  3  0  0  0  0
  2  3  1  0  0  0  0
  3  4  2  0  0  0  0
  3 29  1  0  0  0  0
  4  5  1  0  0  0  0
  4 30  1  0  0  0  0
  5  6  1  0  0  0  0
  5 26  2  0  0  0  0
  6  7  2  0  0  0  0
  6 25  1  0  0  0  0
  7  8  1  0  0  0  0
  7 31  1  0  0  0  0
  8  9  2  0  0  0  0
  8 32  1  0  0  0  0
  9 10  1  0  0  0  0
  9 33  1  0  0  0  0
 10 11  1  0  0  0  0
 10 25  2  0  0  0  0
 11 12  1  0  0  0  0
 11 34  1  0  0  0  0
 12 13  2  0  0  0  0
 12 14  1  0  0  0  0
 14 15  2  0  0  0  0
 14 24  1  0  0  0  0
 15 16  1  0  0  0  0
 15 35  1  0  0  0  0
 16 17  2  0  0  0  0
 16 36  1  0  0  0  0
 17 18  1  0  0  0  0
 17 23  1  0  0  0  0
 18 19  2  0  0  0  0
 18 37  1  0  0  0  0
 19 20  1  0  0  0  0
 20 21  1  0  0  0  0
 20 38  1  0  0  0  0
 21 22  2  0  0  0  0
 21 23  1  0  0  0  0
 23 24  2  0  0  0  0
 24 39  1  0  0  0  0
 26 27  1  0  0  0  0
 26 40  1  0  0  0  0
 27 28  1  0  0  0  0
 27 29  2  0  0  0  0
 29 41  1  0  0  0  0
M  END
$$$$
