
 OpenBabel01122422383D

 41 44  0  0  0  0  0  0  0  0999 V2000
    2.7554    3.2151   -0.2174 O   0  0  0  0  0  0  0  0  0  0  0  0
    2.4953    2.0267   -0.1143 C   0  0  0  0  0  0  0  0  0  0  0  0
    3.2687    1.0799    0.4732 O   0  0  0  0  0  0  0  0  0  0  0  0
    4.5632    1.5291    0.8916 C   0  0  0  0  0  0  0  0  0  0  0  0
    4.4383    2.3034    2.1452 C   0  0  0  0  0  0  0  0  0  0  0  0
    3.3619    2.6633    2.8071 N   0  0  0  0  0  0  0  0  0  0  0  0
    3.8905    3.2327    3.9334 C   0  0  0  0  0  0  0  0  0  0  0  0
    3.0218    3.5927    5.0744 C   0  0  0  0  0  0  0  0  0  0  0  0
    2.8512    5.0874    5.0715 C   0  0  0  0  0  0  0  0  0  0  0  0
    1.8078    5.6949    4.3545 C   0  0  0  0  0  0  0  0  0  0  0  0
    1.6240    7.0724    4.4289 C   0  0  0  0  0  0  0  0  0  0  0  0
    0.6106    7.6411    3.7619 F   0  0  0  0  0  0  0  0  0  0  0  0
    2.4647    7.8670    5.1993 C   0  0  0  0  0  0  0  0  0  0  0  0
    3.5189    7.2766    5.8946 C   0  0  0  0  0  0  0  0  0  0  0  0
    3.7125    5.8932    5.8326 C   0  0  0  0  0  0  0  0  0  0  0  0
    5.2297    3.2412    3.9905 N   0  0  0  0  0  0  0  0  0  0  0  0
    5.6006    2.6322    2.7811 O   0  0  0  0  0  0  0  0  0  0  0  0
    1.3346    1.3801   -0.7819 C   0  0  0  0  0  0  0  0  0  0  0  0
    0.4375    2.1793   -1.4741 C   0  0  0  0  0  0  0  0  0  0  0  0
   -0.4050    1.5586   -2.3877 C   0  0  0  0  0  0  0  0  0  0  0  0
   -0.3558    0.1651   -2.5414 C   0  0  0  0  0  0  0  0  0  0  0  0
   -1.1364   -0.5042   -3.4936 C   0  0  0  0  0  0  0  0  0  0  0  0
   -1.0762   -1.8897   -3.5751 C   0  0  0  0  0  0  0  0  0  0  0  0
   -1.8262   -2.5271   -4.4825 F   0  0  0  0  0  0  0  0  0  0  0  0
   -0.2503   -2.6081   -2.7217 C   0  0  0  0  0  0  0  0  0  0  0  0
   -0.2017   -3.9447   -2.7973 F   0  0  0  0  0  0  0  0  0  0  0  0
    0.5498   -1.9501   -1.8022 C   0  0  0  0  0  0  0  0  0  0  0  0
    0.5229   -0.5705   -1.7100 C   0  0  0  0  0  0  0  0  0  0  0  0
    1.3510    0.0230   -0.8534 N   0  0  0  0  0  0  0  0  0  0  0  0
    5.0552    2.0873    0.0882 H   0  0  0  0  0  0  0  0  0  0  0  0
    5.1536    0.6266    1.0808 H   0  0  0  0  0  0  0  0  0  0  0  0
    3.4547    3.2497    6.0197 H   0  0  0  0  0  0  0  0  0  0  0  0
    2.0463    3.1024    4.9765 H   0  0  0  0  0  0  0  0  0  0  0  0
    1.1271    5.1061    3.7444 H   0  0  0  0  0  0  0  0  0  0  0  0
    2.2948    8.9371    5.2516 H   0  0  0  0  0  0  0  0  0  0  0  0
    4.1841    7.8895    6.4967 H   0  0  0  0  0  0  0  0  0  0  0  0
    4.5401    5.4481    6.3827 H   0  0  0  0  0  0  0  0  0  0  0  0
    0.4429    3.2595   -1.3596 H   0  0  0  0  0  0  0  0  0  0  0  0
   -1.0670    2.1680   -2.9986 H   0  0  0  0  0  0  0  0  0  0  0  0
   -1.7820    0.0374   -4.1784 H   0  0  0  0  0  0  0  0  0  0  0  0
    1.2122   -2.5240   -1.1566 H   0  0  0  0  0  0  0  0  0  0  0  0
  1  2  2  0  0  0  0
  2  3  1  0  0  0  0
  2 18  1  0  0  0  0
  3  4  1  0  0  0  0
  4  5  1  0  0  0  0
  4 30  1  0  0  0  0
  4 31  1  0  0  0  0
  5  6  2  0  0  0  0
  5 17  1  0  0  0  0
  6  7  1  0  0  0  0
  7  8  1  0  0  0  0
  7 16  2  0  0  0  0
  8  9  1  0  0  0  0
  8 32  1  0  0  0  0
  8 33  1  0  0  0  0
  9 10  2  0  0  0  0
  9 15  1  0  0  0  0
 10 11  1  0  0  0  0
 10 34  1  0  0  0  0
 11 12  1  0  0  0  0
 11 13  2  0  0  0  0
 13 14  1  0  0  0  0
 13 35  1  0  0  0  0
 14 15  2  0  0  0  0
 14 36  1  0  0  0  0
 15 37  1  0  0  0  0
 16 17  1  0  0  0  0
 18 19  2  0  0  0  0
 18 29  1  0  0  0  0
 19 20  1  0  0  0  0
 19 38  1  0  0  0  0
 20 21  2  0  0  0  0
 20 39  1  0  0  0  0
 21 22  1  0  0  0  0
 21 28  1  0  0  0  0
 22 23  2  0  0  0  0
 22 40  1  0  0  0  0
 23 24  1  0  0  0  0
 23 25  1  0  0  0  0
 25 26  1  0  0  0  0
 25 27  2  0  0  0  0
 27 28  1  0  0  0  0
 27 41  1  0  0  0  0
 28 29  2  0  0  0  0
M  END
$$$$
