
 OpenBabel01122422383D

 42 44  0  0  0  0  0  0  0  0999 V2000
    9.3937   -5.5580   -4.5117 C   0  0  0  0  0  0  0  0  0  0  0  0
    9.1196   -4.2648   -3.9709 O   0  0  0  0  0  0  0  0  0  0  0  0
    9.1656   -4.2146   -2.6178 C   0  0  0  0  0  0  0  0  0  0  0  0
    9.3800   -5.1532   -1.8694 O   0  0  0  0  0  0  0  0  0  0  0  0
    8.8287   -2.8605   -2.1268 C   0  0  0  0  0  0  0  0  0  0  0  0
    8.2353   -2.7546   -0.8669 C   0  0  0  0  0  0  0  0  0  0  0  0
    7.9254   -1.4988   -0.3525 C   0  0  0  0  0  0  0  0  0  0  0  0
    8.2135   -0.3428   -1.0875 C   0  0  0  0  0  0  0  0  0  0  0  0
    7.8967    0.8171   -0.5009 F   0  0  0  0  0  0  0  0  0  0  0  0
    8.8070   -0.4167   -2.3494 C   0  0  0  0  0  0  0  0  0  0  0  0
    9.1648    0.6772   -3.1892 N   0  0  0  0  0  0  0  0  0  0  0  0
    9.0134    2.0311   -2.9628 C   0  0  0  0  0  0  0  0  0  0  0  0
    8.4442    2.5527   -2.0139 O   0  0  0  0  0  0  0  0  0  0  0  0
    9.6007    2.9060   -4.0425 C   0  0  0  0  0  0  0  0  0  0  0  0
    9.1021    4.1508   -4.1711 C   0  0  0  0  0  0  0  0  0  0  0  0
    9.6080    5.0730   -5.0909 N   0  0  0  0  0  0  0  0  0  0  0  0
    9.0147    6.3701   -5.2445 C   0  0  0  0  0  0  0  0  0  0  0  0
    7.6196    6.5087   -5.3166 C   0  0  0  0  0  0  0  0  0  0  0  0
    7.0480    7.7538   -5.5968 C   0  0  0  0  0  0  0  0  0  0  0  0
    7.8646    8.8671   -5.7571 C   0  0  0  0  0  0  0  0  0  0  0  0
    7.3149   10.0537   -6.0461 F   0  0  0  0  0  0  0  0  0  0  0  0
    9.2429    8.7633   -5.6341 C   0  0  0  0  0  0  0  0  0  0  0  0
    9.8172    7.5144   -5.3876 C   0  0  0  0  0  0  0  0  0  0  0  0
   10.6735    4.7300   -5.9450 C   0  0  0  0  0  0  0  0  0  0  0  0
   11.1622    5.4298   -6.8299 O   0  0  0  0  0  0  0  0  0  0  0  0
   11.2246    3.3582   -5.7799 C   0  0  0  0  0  0  0  0  0  0  0  0
   10.7170    2.5125   -4.8764 C   0  0  0  0  0  0  0  0  0  0  0  0
    9.1134   -1.6968   -2.8514 C   0  0  0  0  0  0  0  0  0  0  0  0
    9.7301   -1.7674   -4.0432 F   0  0  0  0  0  0  0  0  0  0  0  0
    9.3819   -5.4774   -5.6018 H   0  0  0  0  0  0  0  0  0  0  0  0
    8.6209   -6.2709   -4.2078 H   0  0  0  0  0  0  0  0  0  0  0  0
   10.3843   -5.9049   -4.2011 H   0  0  0  0  0  0  0  0  0  0  0  0
    8.0150   -3.6466   -0.2803 H   0  0  0  0  0  0  0  0  0  0  0  0
    7.4648   -1.4011    0.6250 H   0  0  0  0  0  0  0  0  0  0  0  0
    9.5619    0.3918   -4.0760 H   0  0  0  0  0  0  0  0  0  0  0  0
    8.3020    4.5049   -3.5235 H   0  0  0  0  0  0  0  0  0  0  0  0
    6.9683    5.6424   -5.2371 H   0  0  0  0  0  0  0  0  0  0  0  0
    5.9743    7.8568   -5.7168 H   0  0  0  0  0  0  0  0  0  0  0  0
    9.8650    9.6449   -5.7503 H   0  0  0  0  0  0  0  0  0  0  0  0
   10.8997    7.4450   -5.3034 H   0  0  0  0  0  0  0  0  0  0  0  0
   12.0531    3.0986   -6.4270 H   0  0  0  0  0  0  0  0  0  0  0  0
   11.1738    1.5369   -4.7579 H   0  0  0  0  0  0  0  0  0  0  0  0
  1  2  1  0  0  0  0
  1 30  1  0  0  0  0
  1 31  1  0  0  0  0
  1 32  1  0  0  0  0
  2  3  1  0  0  0  0
  3  4  2  0  0  0  0
  3  5  1  0  0  0  0
  5  6  2  0  0  0  0
  5 28  1  0  0  0  0
  6  7  1  0  0  0  0
  6 33  1  0  0  0  0
  7  8  2  0  0  0  0
  7 34  1  0  0  0  0
  8  9  1  0  0  0  0
  8 10  1  0  0  0  0
 10 11  1  0  0  0  0
 10 28  2  0  0  0  0
 11 12  1  0  0  0  0
 11 35  1  0  0  0  0
 12 13  2  0  0  0  0
 12 14  1  0  0  0  0
 14 15  2  0  0  0  0
 14 27  1  0  0  0  0
 15 16  1  0  0  0  0
 15 36  1  0  0  0  0
 16 17  1  0  0  0  0
 16 24  1  0  0  0  0
 17 18  2  0  0  0  0
 17 23  1  0  0  0  0
 18 19  1  0  0  0  0
 18 37  1  0  0  0  0
 19 20  2  0  0  0  0
 19 38  1  0  0  0  0
 20 21  1  0  0  0  0
 20 22  1  0  0  0  0
 22 23  2  0  0  0  0
 22 39  1  0  0  0  0
 23 40  1  0  0  0  0
 24 25  2  0  0  0  0
 24 26  1  0  0  0  0
 26 27  2  0  0  0  0
 26 41  1  0  0  0  0
 27 42  1  0  0  0  0
 28 29  1  0  0  0  0
M  END
$$$$
