
 OpenBabel01122422383D

 48 50  0  0  1  0  0  0  0  0999 V2000
    0.4327    5.3082    2.9597 C   0  0  0  0  0  0  0  0  0  0  0  0
   -0.3068    4.3769    2.0457 C   0  0  0  0  0  0  0  0  0  0  0  0
   -0.4287    4.6411    0.6774 C   0  0  0  0  0  0  0  0  0  0  0  0
   -1.1895    3.8024   -0.1436 C   0  0  0  0  0  0  0  0  0  0  0  0
   -1.8510    2.6824    0.3867 C   0  0  0  0  0  0  0  0  0  0  0  0
   -2.7093    1.8046   -0.5192 C   0  0  3  0  0  0  0  0  0  0  0  0
   -1.8677    0.6799   -1.1639 C   0  0  0  0  0  0  0  0  0  0  0  0
   -1.3277   -0.2141   -0.1839 O   0  0  0  0  0  0  0  0  0  0  0  0
   -3.8468    1.2295    0.2057 N   0  0  0  0  0  0  0  0  0  0  0  0
   -5.1165    1.7845    0.1650 C   0  0  0  0  0  0  0  0  0  0  0  0
   -5.3669    2.7074   -0.5956 O   0  0  0  0  0  0  0  0  0  0  0  0
   -6.1716    1.1522    1.0505 C   0  0  0  0  0  0  0  0  0  0  0  0
   -5.7297    0.3495    2.1260 C   0  0  0  0  0  0  0  0  0  0  0  0
   -6.6324   -0.3758    2.9013 C   0  0  0  0  0  0  0  0  0  0  0  0
   -6.1698   -1.1568    3.8853 F   0  0  0  0  0  0  0  0  0  0  0  0
   -7.9882   -0.2874    2.6577 C   0  0  0  0  0  0  0  0  0  0  0  0
   -8.8568   -1.0001    3.3853 F   0  0  0  0  0  0  0  0  0  0  0  0
   -8.4628    0.5622    1.6711 C   0  0  0  0  0  0  0  0  0  0  0  0
   -7.5671    1.2867    0.8470 C   0  0  0  0  0  0  0  0  0  0  0  0
   -8.2203    2.2660   -0.0815 C   0  0  0  0  0  0  0  0  0  0  0  0
   -7.8186    3.4247   -0.0918 O   0  0  0  0  0  0  0  0  0  0  0  0
   -9.5048    1.9547   -0.7907 C   0  0  0  0  0  0  0  0  0  0  0  0
   -9.8944    0.6553   -1.1451 C   0  0  0  0  0  0  0  0  0  0  0  0
  -11.1681    0.4274   -1.6837 C   0  0  0  0  0  0  0  0  0  0  0  0
  -12.0416    1.4938   -1.8985 C   0  0  0  0  0  0  0  0  0  0  0  0
  -11.6475    2.7908   -1.5864 C   0  0  0  0  0  0  0  0  0  0  0  0
  -10.3826    3.0206   -1.0369 C   0  0  0  0  0  0  0  0  0  0  0  0
   -1.6827    2.4000    1.7512 C   0  0  0  0  0  0  0  0  0  0  0  0
   -0.9275    3.2403    2.5716 C   0  0  0  0  0  0  0  0  0  0  0  0
    0.9152    6.1196    2.4065 H   0  0  0  0  0  0  0  0  0  0  0  0
    1.2092    4.7659    3.5089 H   0  0  0  0  0  0  0  0  0  0  0  0
   -0.2647    5.7562    3.6751 H   0  0  0  0  0  0  0  0  0  0  0  0
    0.0519    5.5156    0.2433 H   0  0  0  0  0  0  0  0  0  0  0  0
   -1.2814    4.0469   -1.1998 H   0  0  0  0  0  0  0  0  0  0  0  0
   -3.1052    2.4302   -1.3283 H   0  0  0  0  0  0  0  0  0  0  0  0
   -1.0404    1.0824   -1.7602 H   0  0  0  0  0  0  0  0  0  0  0  0
   -2.4989    0.0784   -1.8275 H   0  0  0  0  0  0  0  0  0  0  0  0
   -0.5450    0.2331    0.1896 H   0  0  0  0  0  0  0  0  0  0  0  0
   -3.6307    0.3937    0.7273 H   0  0  0  0  0  0  0  0  0  0  0  0
   -4.6857    0.2762    2.4049 H   0  0  0  0  0  0  0  0  0  0  0  0
   -9.5411    0.6645    1.5780 H   0  0  0  0  0  0  0  0  0  0  0  0
   -9.2349   -0.1953   -0.9929 H   0  0  0  0  0  0  0  0  0  0  0  0
  -11.4817   -0.5844   -1.9301 H   0  0  0  0  0  0  0  0  0  0  0  0
  -13.0320    1.3120   -2.3117 H   0  0  0  0  0  0  0  0  0  0  0  0
  -12.3203    3.6219   -1.7589 H   0  0  0  0  0  0  0  0  0  0  0  0
  -10.0938    4.0378   -0.7795 H   0  0  0  0  0  0  0  0  0  0  0  0
   -2.1551    1.5308    2.2001 H   0  0  0  0  0  0  0  0  0  0  0  0
   -0.8437    3.0139    3.6325 H   0  0  0  0  0  0  0  0  0  0  0  0
  1  2  1  0  0  0  0
  1 30  1  0  0  0  0
  1 31  1  0  0  0  0
  1 32  1  0  0  0  0
  2  3  2  0  0  0  0
  2 29  1  0  0  0  0
  3  4  1  0  0  0  0
  3 33  1  0  0  0  0
  4  5  2  0  0  0  0
  4 34  1  0  0  0  0
  5  6  1  0  0  0  0
  5 28  1  0  0  0  0
  6  7  1  0  0  0  0
  6  9  1  0  0  0  0
  6 35  1  0  0  0  0
  7  8  1  0  0  0  0
  7 36  1  0  0  0  0
  7 37  1  0  0  0  0
  8 38  1  0  0  0  0
  9 10  1  0  0  0  0
  9 39  1  0  0  0  0
 10 11  2  0  0  0  0
 10 12  1  0  0  0  0
 12 13  2  0  0  0  0
 12 19  1  0  0  0  0
 13 14  1  0  0  0  0
 13 40  1  0  0  0  0
 14 15  1  0  0  0  0
 14 16  2  0  0  0  0
 16 17  1  0  0  0  0
 16 18  1  0  0  0  0
 18 19  2  0  0  0  0
 18 41  1  0  0  0  0
 19 20  1  0  0  0  0
 20 21  2  0  0  0  0
 20 22  1  0  0  0  0
 22 23  2  0  0  0  0
 22 27  1  0  0  0  0
 23 24  1  0  0  0  0
 23 42  1  0  0  0  0
 24 25  2  0  0  0  0
 24 43  1  0  0  0  0
 25 26  1  0  0  0  0
 25 44  1  0  0  0  0
 26 27  2  0  0  0  0
 26 45  1  0  0  0  0
 27 46  1  0  0  0  0
 28 29  2  0  0  0  0
 28 47  1  0  0  0  0
 29 48  1  0  0  0  0
M  END
$$$$
