
 OpenBabel01122422383D

 44 47  0  0  0  0  0  0  0  0999 V2000
    3.4866    1.4138   -1.7948 O   0  0  0  0  0  0  0  0  0  0  0  0
    2.7144    1.3384   -0.8732 C   0  0  0  0  0  0  0  0  0  0  0  0
    3.0543    1.0064    0.4135 O   0  0  0  0  0  0  0  0  0  0  0  0
    4.4620    0.8310    0.7262 C   0  0  0  0  0  0  0  0  0  0  0  0
    4.8166    1.8776    1.7535 C   0  0  0  0  0  0  0  0  0  0  0  0
    4.6917    3.2274    1.4008 C   0  0  0  0  0  0  0  0  0  0  0  0
    4.8937    4.2203    2.3565 C   0  0  0  0  0  0  0  0  0  0  0  0
    4.7315    5.5427    2.0309 O   0  0  0  0  0  0  0  0  0  0  0  0
    5.5515    6.4190    2.8296 C   0  0  0  0  0  0  0  0  0  0  0  0
    5.8361    7.6379    2.0173 C   0  0  0  0  0  0  0  0  0  0  0  0
    6.5060    7.5253    0.7920 C   0  0  0  0  0  0  0  0  0  0  0  0
    6.7186    8.6600    0.0186 C   0  0  0  0  0  0  0  0  0  0  0  0
    6.2652    9.8945    0.4749 C   0  0  0  0  0  0  0  0  0  0  0  0
    6.4628   10.9821   -0.2804 F   0  0  0  0  0  0  0  0  0  0  0  0
    5.6129   10.0228    1.6928 C   0  0  0  0  0  0  0  0  0  0  0  0
    5.4100    8.8902    2.4616 C   0  0  0  0  0  0  0  0  0  0  0  0
    4.7895    9.0083    3.6445 F   0  0  0  0  0  0  0  0  0  0  0  0
    5.2290    3.8626    3.6597 C   0  0  0  0  0  0  0  0  0  0  0  0
    5.3861    2.5318    4.0127 C   0  0  0  0  0  0  0  0  0  0  0  0
    5.1783    1.5305    3.0636 C   0  0  0  0  0  0  0  0  0  0  0  0
    1.2447    1.5833   -1.0521 C   0  0  0  0  0  0  0  0  0  0  0  0
    0.7520    1.5181   -2.3124 C   0  0  0  0  0  0  0  0  0  0  0  0
   -0.6694    1.6969   -2.5971 C   0  0  0  0  0  0  0  0  0  0  0  0
   -1.5106    1.8911   -1.5684 C   0  0  0  0  0  0  0  0  0  0  0  0
   -1.0102    1.9760   -0.2698 N   0  0  0  0  0  0  0  0  0  0  0  0
   -1.6877    2.1625    0.8901 N   0  0  0  0  0  0  0  0  0  0  0  0
   -0.8091    2.3053    1.8747 N   0  0  0  0  0  0  0  0  0  0  0  0
    0.4417    2.1777    1.3538 C   0  0  0  0  0  0  0  0  0  0  0  0
    0.3538    1.8879    0.0136 C   0  0  0  0  0  0  0  0  0  0  0  0
    5.1180    0.9056   -0.1548 H   0  0  0  0  0  0  0  0  0  0  0  0
    4.6184   -0.1565    1.1746 H   0  0  0  0  0  0  0  0  0  0  0  0
    4.4143    3.4559    0.3717 H   0  0  0  0  0  0  0  0  0  0  0  0
    6.5181    5.9499    3.0852 H   0  0  0  0  0  0  0  0  0  0  0  0
    5.0407    6.6942    3.7658 H   0  0  0  0  0  0  0  0  0  0  0  0
    6.8389    6.5518    0.4338 H   0  0  0  0  0  0  0  0  0  0  0  0
    7.2234    8.5887   -0.9387 H   0  0  0  0  0  0  0  0  0  0  0  0
    5.2617   10.9875    2.0361 H   0  0  0  0  0  0  0  0  0  0  0  0
    5.3646    4.6289    4.4083 H   0  0  0  0  0  0  0  0  0  0  0  0
    5.6484    2.2814    5.0299 H   0  0  0  0  0  0  0  0  0  0  0  0
    5.2734    0.4956    3.3700 H   0  0  0  0  0  0  0  0  0  0  0  0
    1.3940    1.3084   -3.1671 H   0  0  0  0  0  0  0  0  0  0  0  0
   -1.0178    1.6496   -3.6248 H   0  0  0  0  0  0  0  0  0  0  0  0
   -2.5806    2.0088   -1.6788 H   0  0  0  0  0  0  0  0  0  0  0  0
    1.3269    2.2686    1.9680 H   0  0  0  0  0  0  0  0  0  0  0  0
  1  2  2  0  0  0  0
  2  3  1  0  0  0  0
  2 21  1  0  0  0  0
  3  4  1  0  0  0  0
  4  5  1  0  0  0  0
  4 30  1  0  0  0  0
  4 31  1  0  0  0  0
  5  6  2  0  0  0  0
  5 20  1  0  0  0  0
  6  7  1  0  0  0  0
  6 32  1  0  0  0  0
  7  8  1  0  0  0  0
  7 18  2  0  0  0  0
  8  9  1  0  0  0  0
  9 10  1  0  0  0  0
  9 33  1  0  0  0  0
  9 34  1  0  0  0  0
 10 11  2  0  0  0  0
 10 16  1  0  0  0  0
 11 12  1  0  0  0  0
 11 35  1  0  0  0  0
 12 13  2  0  0  0  0
 12 36  1  0  0  0  0
 13 14  1  0  0  0  0
 13 15  1  0  0  0  0
 15 16  2  0  0  0  0
 15 37  1  0  0  0  0
 16 17  1  0  0  0  0
 18 19  1  0  0  0  0
 18 38  1  0  0  0  0
 19 20  2  0  0  0  0
 19 39  1  0  0  0  0
 20 40  1  0  0  0  0
 21 22  2  0  0  0  0
 21 29  1  0  0  0  0
 22 23  1  0  0  0  0
 22 41  1  0  0  0  0
 23 24  2  0  0  0  0
 23 42  1  0  0  0  0
 24 25  1  0  0  0  0
 24 43  1  0  0  0  0
 25 26  1  0  0  0  0
 25 29  1  0  0  0  0
 26 27  2  0  0  0  0
 27 28  1  0  0  0  0
 28 29  2  0  0  0  0
 28 44  1  0  0  0  0
M  END
$$$$
