
 OpenBabel01122422383D

 44 47  0  0  0  0  0  0  0  0999 V2000
    0.9657   -0.2733   -0.1181 O   0  0  0  0  0  0  0  0  0  0  0  0
    2.1869   -0.1494   -0.1111 C   0  0  0  0  0  0  0  0  0  0  0  0
    2.8574    0.5254   -1.0989 N   0  0  0  0  0  0  0  0  0  0  0  0
    2.1740    1.1933   -2.1871 C   0  0  0  0  0  0  0  0  0  0  0  0
    3.2045    1.9377   -3.0382 C   0  0  0  0  0  0  0  0  0  0  0  0
    4.3890    1.9763   -2.7012 O   0  0  0  0  0  0  0  0  0  0  0  0
    2.7319    2.6425   -4.2799 C   0  0  0  0  0  0  0  0  0  0  0  0
    1.4229    3.1592   -4.2824 C   0  0  0  0  0  0  0  0  0  0  0  0
    0.9470    3.8755   -5.3757 C   0  0  0  0  0  0  0  0  0  0  0  0
    1.7734    4.0881   -6.4688 C   0  0  0  0  0  0  0  0  0  0  0  0
    1.2854    4.7961   -7.4999 F   0  0  0  0  0  0  0  0  0  0  0  0
    3.0803    3.5865   -6.5141 C   0  0  0  0  0  0  0  0  0  0  0  0
    3.8806    3.8275   -7.6464 C   0  0  0  0  0  0  0  0  0  0  0  0
    5.1782    3.3326   -7.7295 C   0  0  0  0  0  0  0  0  0  0  0  0
    5.6891    2.5813   -6.6826 C   0  0  0  0  0  0  0  0  0  0  0  0
    4.9064    2.3355   -5.5491 C   0  0  0  0  0  0  0  0  0  0  0  0
    3.5858    2.8387   -5.4150 C   0  0  0  0  0  0  0  0  0  0  0  0
    3.0262   -0.7008    0.9297 C   0  0  0  0  0  0  0  0  0  0  0  0
    4.3830   -0.5673    1.1806 C   0  0  0  0  0  0  0  0  0  0  0  0
    4.7158   -1.3071    2.3523 C   0  0  0  0  0  0  0  0  0  0  0  0
    6.0040   -1.4545    3.0260 C   0  0  0  0  0  0  0  0  0  0  0  0
    7.1380   -0.8033    2.5433 C   0  0  0  0  0  0  0  0  0  0  0  0
    8.3450   -0.9506    3.2206 C   0  0  0  0  0  0  0  0  0  0  0  0
    8.3903   -1.7438    4.3597 C   0  0  0  0  0  0  0  0  0  0  0  0
    7.2220   -2.3607    4.7701 C   0  0  0  0  0  0  0  0  0  0  0  0
    6.0346   -2.2351    4.1340 N   0  0  0  0  0  0  0  0  0  0  0  0
    3.5364   -1.8864    2.7809 C   0  0  0  0  0  0  0  0  0  0  0  0
    2.5299   -1.5086    1.9310 N   0  0  0  0  0  0  0  0  0  0  0  0
    3.8662    0.6143   -1.0737 H   0  0  0  0  0  0  0  0  0  0  0  0
    1.4601    1.8910   -1.7430 H   0  0  0  0  0  0  0  0  0  0  0  0
    1.6604    0.4364   -2.7861 H   0  0  0  0  0  0  0  0  0  0  0  0
    0.7549    3.0443   -3.4335 H   0  0  0  0  0  0  0  0  0  0  0  0
   -0.0593    4.2846   -5.3793 H   0  0  0  0  0  0  0  0  0  0  0  0
    3.4890    4.4106   -8.4793 H   0  0  0  0  0  0  0  0  0  0  0  0
    5.7840    3.5318   -8.6098 H   0  0  0  0  0  0  0  0  0  0  0  0
    6.6999    2.1842   -6.7389 H   0  0  0  0  0  0  0  0  0  0  0  0
    5.3591    1.7351   -4.7629 H   0  0  0  0  0  0  0  0  0  0  0  0
    5.0697    0.0199    0.5873 H   0  0  0  0  0  0  0  0  0  0  0  0
    7.1011   -0.1813    1.6566 H   0  0  0  0  0  0  0  0  0  0  0  0
    9.2375   -0.4462    2.8623 H   0  0  0  0  0  0  0  0  0  0  0  0
    9.3139   -1.8761    4.9114 H   0  0  0  0  0  0  0  0  0  0  0  0
    7.2057   -2.9909    5.6543 H   0  0  0  0  0  0  0  0  0  0  0  0
    3.3318   -2.5282    3.6280 H   0  0  0  0  0  0  0  0  0  0  0  0
    1.5556   -1.7744    2.0106 H   0  0  0  0  0  0  0  0  0  0  0  0
  1  2  2  0  0  0  0
  2  3  1  0  0  0  0
  2 18  1  0  0  0  0
  3  4  1  0  0  0  0
  3 29  1  0  0  0  0
  4  5  1  0  0  0  0
  4 30  1  0  0  0  0
  4 31  1  0  0  0  0
  5  6  2  0  0  0  0
  5  7  1  0  0  0  0
  7  8  2  0  0  0  0
  7 17  1  0  0  0  0
  8  9  1  0  0  0  0
  8 32  1  0  0  0  0
  9 10  2  0  0  0  0
  9 33  1  0  0  0  0
 10 11  1  0  0  0  0
 10 12  1  0  0  0  0
 12 13  2  0  0  0  0
 12 17  1  0  0  0  0
 13 14  1  0  0  0  0
 13 34  1  0  0  0  0
 14 15  2  0  0  0  0
 14 35  1  0  0  0  0
 15 16  1  0  0  0  0
 15 36  1  0  0  0  0
 16 17  2  0  0  0  0
 16 37  1  0  0  0  0
 18 19  2  0  0  0  0
 18 28  1  0  0  0  0
 19 20  1  0  0  0  0
 19 38  1  0  0  0  0
 20 21  1  0  0  0  0
 20 27  2  0  0  0  0
 21 22  2  0  0  0  0
 21 26  1  0  0  0  0
 22 23  1  0  0  0  0
 22 39  1  0  0  0  0
 23 24  2  0  0  0  0
 23 40  1  0  0  0  0
 24 25  1  0  0  0  0
 24 41  1  0  0  0  0
 25 26  2  0  0  0  0
 25 42  1  0  0  0  0
 27 28  1  0  0  0  0
 27 43  1  0  0  0  0
 28 44  1  0  0  0  0
M  END
$$$$
