
 OpenBabel01122422383D

 44 47  0  0  0  0  0  0  0  0999 V2000
    1.0880    0.0373   -0.0706 O   0  0  0  0  0  0  0  0  0  0  0  0
    2.3144    0.0254   -0.0490 C   0  0  0  0  0  0  0  0  0  0  0  0
    3.0297   -0.4213   -1.1402 N   0  0  0  0  0  0  0  0  0  0  0  0
    4.4681   -0.4398   -1.2898 C   0  0  0  0  0  0  0  0  0  0  0  0
    4.9964   -1.4630   -2.2373 C   0  0  0  0  0  0  0  0  0  0  0  0
    5.8369   -1.0624   -3.2788 C   0  0  0  0  0  0  0  0  0  0  0  0
    6.0480    0.2503   -3.4769 F   0  0  0  0  0  0  0  0  0  0  0  0
    6.4950   -1.9911   -4.0889 C   0  0  0  0  0  0  0  0  0  0  0  0
    7.3532   -1.5830   -5.1217 C   0  0  0  0  0  0  0  0  0  0  0  0
    8.0142   -2.5264   -5.9046 C   0  0  0  0  0  0  0  0  0  0  0  0
    7.8293   -3.8840   -5.6596 C   0  0  0  0  0  0  0  0  0  0  0  0
    6.9831   -4.3030   -4.6309 C   0  0  0  0  0  0  0  0  0  0  0  0
    6.3052   -3.3683   -3.8365 C   0  0  0  0  0  0  0  0  0  0  0  0
    5.4592   -3.7718   -2.7899 C   0  0  0  0  0  0  0  0  0  0  0  0
    4.8064   -2.8272   -1.9974 C   0  0  0  0  0  0  0  0  0  0  0  0
    3.0364    0.4315    1.1896 C   0  0  0  0  0  0  0  0  0  0  0  0
    2.5420   -0.0084    2.4220 C   0  0  0  0  0  0  0  0  0  0  0  0
    3.2545    0.2557    3.5973 C   0  0  0  0  0  0  0  0  0  0  0  0
    4.4696    0.9511    3.5373 C   0  0  0  0  0  0  0  0  0  0  0  0
    5.2681    1.2910    4.7425 C   0  0  0  0  0  0  0  0  0  0  0  0
    6.5652    1.3082    4.6615 N   0  0  0  0  0  0  0  0  0  0  0  0
    7.2461    1.6982    5.7796 N   0  0  0  0  0  0  0  0  0  0  0  0
    6.6815    2.1073    6.9573 C   0  0  0  0  0  0  0  0  0  0  0  0
    7.3338    2.4867    7.9218 O   0  0  0  0  0  0  0  0  0  0  0  0
    5.2091    2.0721    7.0109 C   0  0  0  0  0  0  0  0  0  0  0  0
    4.5018    1.6699    5.9518 C   0  0  0  0  0  0  0  0  0  0  0  0
    4.9511    1.4059    2.3082 C   0  0  0  0  0  0  0  0  0  0  0  0
    4.2046    1.2014    1.1527 C   0  0  0  0  0  0  0  0  0  0  0  0
    2.4595   -0.5968   -1.9590 H   0  0  0  0  0  0  0  0  0  0  0  0
    4.9441   -0.6460   -0.3275 H   0  0  0  0  0  0  0  0  0  0  0  0
    4.7551    0.5654   -1.6125 H   0  0  0  0  0  0  0  0  0  0  0  0
    7.5121   -0.5251   -5.3184 H   0  0  0  0  0  0  0  0  0  0  0  0
    8.6762   -2.2004   -6.7028 H   0  0  0  0  0  0  0  0  0  0  0  0
    8.3473   -4.6203   -6.2677 H   0  0  0  0  0  0  0  0  0  0  0  0
    6.8608   -5.3696   -4.4542 H   0  0  0  0  0  0  0  0  0  0  0  0
    5.3204   -4.8289   -2.5688 H   0  0  0  0  0  0  0  0  0  0  0  0
    4.1861   -3.1585   -1.1659 H   0  0  0  0  0  0  0  0  0  0  0  0
    1.6086   -0.5675    2.4652 H   0  0  0  0  0  0  0  0  0  0  0  0
    2.8583   -0.1108    4.5406 H   0  0  0  0  0  0  0  0  0  0  0  0
    8.2581    1.7257    5.7094 H   0  0  0  0  0  0  0  0  0  0  0  0
    4.7446    2.3991    7.9304 H   0  0  0  0  0  0  0  0  0  0  0  0
    3.4244    1.6678    5.9537 H   0  0  0  0  0  0  0  0  0  0  0  0
    5.8999    1.9357    2.2450 H   0  0  0  0  0  0  0  0  0  0  0  0
    4.5710    1.6326    0.2278 H   0  0  0  0  0  0  0  0  0  0  0  0
  1  2  2  0  0  0  0
  2  3  1  0  0  0  0
  2 16  1  0  0  0  0
  3  4  1  0  0  0  0
  3 29  1  0  0  0  0
  4  5  1  0  0  0  0
  4 30  1  0  0  0  0
  4 31  1  0  0  0  0
  5  6  2  0  0  0  0
  5 15  1  0  0  0  0
  6  7  1  0  0  0  0
  6  8  1  0  0  0  0
  8  9  2  0  0  0  0
  8 13  1  0  0  0  0
  9 10  1  0  0  0  0
  9 32  1  0  0  0  0
 10 11  2  0  0  0  0
 10 33  1  0  0  0  0
 11 12  1  0  0  0  0
 11 34  1  0  0  0  0
 12 13  2  0  0  0  0
 12 35  1  0  0  0  0
 13 14  1  0  0  0  0
 14 15  2  0  0  0  0
 14 36  1  0  0  0  0
 15 37  1  0  0  0  0
 16 17  2  0  0  0  0
 16 28  1  0  0  0  0
 17 18  1  0  0  0  0
 17 38  1  0  0  0  0
 18 19  2  0  0  0  0
 18 39  1  0  0  0  0
 19 20  1  0  0  0  0
 19 27  1  0  0  0  0
 20 21  2  0  0  0  0
 20 26  1  0  0  0  0
 21 22  1  0  0  0  0
 22 23  1  0  0  0  0
 22 40  1  0  0  0  0
 23 24  2  0  0  0  0
 23 25  1  0  0  0  0
 25 26  2  0  0  0  0
 25 41  1  0  0  0  0
 26 42  1  0  0  0  0
 27 28  2  0  0  0  0
 27 43  1  0  0  0  0
 28 44  1  0  0  0  0
M  END
$$$$
