
 OpenBabel01122422383D

 46 49  0  0  0  0  0  0  0  0999 V2000
    1.0045    0.1931   -0.0792 O   0  0  0  0  0  0  0  0  0  0  0  0
    2.2204    0.0378   -0.0991 C   0  0  0  0  0  0  0  0  0  0  0  0
    2.8941   -1.1683   -0.1059 N   0  0  0  0  0  0  0  0  0  0  0  0
    2.2768   -2.4408   -0.1012 C   0  0  0  0  0  0  0  0  0  0  0  0
    0.9224   -2.6474   -0.3643 C   0  0  0  0  0  0  0  0  0  0  0  0
    0.3832   -3.9313   -0.2809 C   0  0  0  0  0  0  0  0  0  0  0  0
    1.2244   -4.9776    0.0498 C   0  0  0  0  0  0  0  0  0  0  0  0
    2.5464   -4.8301    0.2795 N   0  0  0  0  0  0  0  0  0  0  0  0
    3.0379   -3.5691    0.1960 C   0  0  0  0  0  0  0  0  0  0  0  0
    3.0643    1.2558   -0.0242 C   0  0  0  0  0  0  0  0  0  0  0  0
    2.6034    2.2929    0.7867 C   0  0  0  0  0  0  0  0  0  0  0  0
    3.2946    3.4977    0.8480 C   0  0  0  0  0  0  0  0  0  0  0  0
    4.4531    3.7031    0.0944 C   0  0  0  0  0  0  0  0  0  0  0  0
    5.1565    4.9360    0.0808 N   0  0  0  0  0  0  0  0  0  0  0  0
    4.7138    6.1078    0.6761 C   0  0  0  0  0  0  0  0  0  0  0  0
    3.6694    6.2320    1.3049 O   0  0  0  0  0  0  0  0  0  0  0  0
    5.5505    7.3331    0.5248 C   0  0  0  0  0  0  0  0  0  0  0  0
    6.1538    7.5859   -0.7206 C   0  0  0  0  0  0  0  0  0  0  0  0
    6.7318    8.8279   -0.9825 C   0  0  0  0  0  0  0  0  0  0  0  0
    6.6849    9.8315   -0.0211 C   0  0  0  0  0  0  0  0  0  0  0  0
    6.1207    9.5761    1.2309 C   0  0  0  0  0  0  0  0  0  0  0  0
    5.5765    8.3182    1.5456 C   0  0  0  0  0  0  0  0  0  0  0  0
    5.0998    8.1061    2.9257 C   0  0  0  0  0  0  0  0  0  0  0  0
    4.4991    8.9583    3.8367 C   0  0  0  0  0  0  0  0  0  0  0  0
    4.3065    8.1948    5.0028 C   0  0  0  0  0  0  0  0  0  0  0  0
    4.7748    6.9546    4.8757 N   0  0  0  0  0  0  0  0  0  0  0  0
    5.1988    6.9109    3.6030 N   0  0  0  0  0  0  0  0  0  0  0  0
    4.9291    2.6483   -0.7000 C   0  0  0  0  0  0  0  0  0  0  0  0
    4.2371    1.4258   -0.7643 C   0  0  0  0  0  0  0  0  0  0  0  0
    3.8938   -1.1453    0.0578 H   0  0  0  0  0  0  0  0  0  0  0  0
    0.2588   -1.8360   -0.6364 H   0  0  0  0  0  0  0  0  0  0  0  0
   -0.6718   -4.0972   -0.4671 H   0  0  0  0  0  0  0  0  0  0  0  0
    0.8431   -5.9899    0.1396 H   0  0  0  0  0  0  0  0  0  0  0  0
    4.1006   -3.4966    0.4059 H   0  0  0  0  0  0  0  0  0  0  0  0
    1.6845    2.1752    1.3606 H   0  0  0  0  0  0  0  0  0  0  0  0
    2.8730    4.2543    1.4997 H   0  0  0  0  0  0  0  0  0  0  0  0
    6.0137    4.9579   -0.4550 H   0  0  0  0  0  0  0  0  0  0  0  0
    6.1279    6.8545   -1.5230 H   0  0  0  0  0  0  0  0  0  0  0  0
    7.1800    9.0290   -1.9529 H   0  0  0  0  0  0  0  0  0  0  0  0
    7.0861   10.8182   -0.2416 H   0  0  0  0  0  0  0  0  0  0  0  0
    6.1129   10.3785    1.9667 H   0  0  0  0  0  0  0  0  0  0  0  0
    4.2195    9.9899    3.6780 H   0  0  0  0  0  0  0  0  0  0  0  0
    3.8504    8.4911    5.9380 H   0  0  0  0  0  0  0  0  0  0  0  0
    5.5400    6.0254    3.2486 H   0  0  0  0  0  0  0  0  0  0  0  0
    5.8204    2.7735   -1.3098 H   0  0  0  0  0  0  0  0  0  0  0  0
    4.5942    0.6447   -1.4299 H   0  0  0  0  0  0  0  0  0  0  0  0
  1  2  2  0  0  0  0
  2  3  1  0  0  0  0
  2 10  1  0  0  0  0
  3  4  1  0  0  0  0
  3 30  1  0  0  0  0
  4  5  2  0  0  0  0
  4  9  1  0  0  0  0
  5  6  1  0  0  0  0
  5 31  1  0  0  0  0
  6  7  2  0  0  0  0
  6 32  1  0  0  0  0
  7  8  1  0  0  0  0
  7 33  1  0  0  0  0
  8  9  2  0  0  0  0
  9 34  1  0  0  0  0
 10 11  2  0  0  0  0
 10 29  1  0  0  0  0
 11 12  1  0  0  0  0
 11 35  1  0  0  0  0
 12 13  2  0  0  0  0
 12 36  1  0  0  0  0
 13 14  1  0  0  0  0
 13 28  1  0  0  0  0
 14 15  1  0  0  0  0
 14 37  1  0  0  0  0
 15 16  2  0  0  0  0
 15 17  1  0  0  0  0
 17 18  2  0  0  0  0
 17 22  1  0  0  0  0
 18 19  1  0  0  0  0
 18 38  1  0  0  0  0
 19 20  2  0  0  0  0
 19 39  1  0  0  0  0
 20 21  1  0  0  0  0
 20 40  1  0  0  0  0
 21 22  2  0  0  0  0
 21 41  1  0  0  0  0
 22 23  1  0  0  0  0
 23 24  2  0  0  0  0
 23 27  1  0  0  0  0
 24 25  1  0  0  0  0
 24 42  1  0  0  0  0
 25 26  2  0  0  0  0
 25 43  1  0  0  0  0
 26 27  1  0  0  0  0
 27 44  1  0  0  0  0
 28 29  2  0  0  0  0
 28 45  1  0  0  0  0
 29 46  1  0  0  0  0
M  END
$$$$
