
 OpenBabel01122422383D

 49 52  0  0  0  0  0  0  0  0999 V2000
    1.7219    4.0757   -3.0295 C   0  0  0  0  0  0  0  0  0  0  0  0
    3.0618    3.5936   -3.0404 O   0  0  0  0  0  0  0  0  0  0  0  0
    3.2368    2.2638   -2.7687 C   0  0  0  0  0  0  0  0  0  0  0  0
    2.2324    1.3712   -2.4163 C   0  0  0  0  0  0  0  0  0  0  0  0
    2.5473    0.0415   -2.1345 C   0  0  0  0  0  0  0  0  0  0  0  0
    3.8689   -0.4155   -2.2171 C   0  0  0  0  0  0  0  0  0  0  0  0
    4.2387   -1.6929   -1.8735 O   0  0  0  0  0  0  0  0  0  0  0  0
    3.2197   -2.6286   -1.5477 C   0  0  0  0  0  0  0  0  0  0  0  0
    4.9018    0.4550   -2.6479 C   0  0  0  0  0  0  0  0  0  0  0  0
    6.2908   -0.0175   -2.9214 C   0  0  0  0  0  0  0  0  0  0  0  0
    6.5369   -1.2671   -3.4926 C   0  0  0  0  0  0  0  0  0  0  0  0
    7.7509   -1.7813   -3.7988 N   0  0  0  0  0  0  0  0  0  0  0  0
    8.8195   -0.9934   -3.5393 C   0  0  0  0  0  0  0  0  0  0  0  0
    8.7247    0.2745   -3.0104 C   0  0  0  0  0  0  0  0  0  0  0  0
    9.8245    1.1500   -2.8101 N   0  0  0  0  0  0  0  0  0  0  0  0
   11.1660    0.8680   -3.0461 C   0  0  0  0  0  0  0  0  0  0  0  0
   11.6294   -0.1750   -3.4710 O   0  0  0  0  0  0  0  0  0  0  0  0
   12.0940    2.0139   -2.7785 C   0  0  0  0  0  0  0  0  0  0  0  0
   11.7324    3.0032   -1.8525 C   0  0  0  0  0  0  0  0  0  0  0  0
   12.4682    4.1776   -1.7491 C   0  0  0  0  0  0  0  0  0  0  0  0
   13.6333    4.2716   -2.4950 C   0  0  0  0  0  0  0  0  0  0  0  0
   14.5079    5.4440   -2.3590 C   0  0  0  0  0  0  0  0  0  0  0  0
   14.1075    6.5902   -2.4858 O   0  0  0  0  0  0  0  0  0  0  0  0
   15.9105    5.0873   -2.0872 C   0  0  0  0  0  0  0  0  0  0  0  0
   16.3370    4.0151   -2.7755 C   0  0  0  0  0  0  0  0  0  0  0  0
   15.5170    3.2458   -3.5862 N   0  0  0  0  0  0  0  0  0  0  0  0
   14.1521    3.1956   -3.2356 C   0  0  0  0  0  0  0  0  0  0  0  0
   13.3307    2.0841   -3.4506 C   0  0  0  0  0  0  0  0  0  0  0  0
    7.4438    0.7637   -2.6873 C   0  0  0  0  0  0  0  0  0  0  0  0
    4.5545    1.8038   -2.8823 C   0  0  0  0  0  0  0  0  0  0  0  0
    1.7443    5.1385   -3.2870 H   0  0  0  0  0  0  0  0  0  0  0  0
    1.2764    3.9840   -2.0331 H   0  0  0  0  0  0  0  0  0  0  0  0
    1.1140    3.5629   -3.7825 H   0  0  0  0  0  0  0  0  0  0  0  0
    1.1928    1.6730   -2.3418 H   0  0  0  0  0  0  0  0  0  0  0  0
    1.7313   -0.6150   -1.8519 H   0  0  0  0  0  0  0  0  0  0  0  0
    3.7052   -3.5808   -1.3134 H   0  0  0  0  0  0  0  0  0  0  0  0
    2.5529   -2.7950   -2.4000 H   0  0  0  0  0  0  0  0  0  0  0  0
    2.6615   -2.3154   -0.6597 H   0  0  0  0  0  0  0  0  0  0  0  0
    5.7142   -1.9352   -3.7604 H   0  0  0  0  0  0  0  0  0  0  0  0
    9.7674   -1.4407   -3.8226 H   0  0  0  0  0  0  0  0  0  0  0  0
    9.5754    2.0895   -2.5322 H   0  0  0  0  0  0  0  0  0  0  0  0
   10.8876    2.8726   -1.1796 H   0  0  0  0  0  0  0  0  0  0  0  0
   12.1981    4.9561   -1.0512 H   0  0  0  0  0  0  0  0  0  0  0  0
   16.4759    5.6826   -1.3877 H   0  0  0  0  0  0  0  0  0  0  0  0
   17.3571    3.6540   -2.6804 H   0  0  0  0  0  0  0  0  0  0  0  0
   15.9280    2.4417   -4.0480 H   0  0  0  0  0  0  0  0  0  0  0  0
   13.6560    1.2676   -4.0885 H   0  0  0  0  0  0  0  0  0  0  0  0
    7.3322    1.7497   -2.2407 H   0  0  0  0  0  0  0  0  0  0  0  0
    5.3104    2.5194   -3.2004 H   0  0  0  0  0  0  0  0  0  0  0  0
  1  2  1  0  0  0  0
  1 31  1  0  0  0  0
  1 32  1  0  0  0  0
  1 33  1  0  0  0  0
  2  3  1  0  0  0  0
  3  4  2  0  0  0  0
  3 30  1  0  0  0  0
  4  5  1  0  0  0  0
  4 34  1  0  0  0  0
  5  6  2  0  0  0  0
  5 35  1  0  0  0  0
  6  7  1  0  0  0  0
  6  9  1  0  0  0  0
  7  8  1  0  0  0  0
  8 36  1  0  0  0  0
  8 37  1  0  0  0  0
  8 38  1  0  0  0  0
  9 10  1  0  0  0  0
  9 30  2  0  0  0  0
 10 11  2  0  0  0  0
 10 29  1  0  0  0  0
 11 12  1  0  0  0  0
 11 39  1  0  0  0  0
 12 13  2  0  0  0  0
 13 14  1  0  0  0  0
 13 40  1  0  0  0  0
 14 15  1  0  0  0  0
 14 29  2  0  0  0  0
 15 16  1  0  0  0  0
 15 41  1  0  0  0  0
 16 17  2  0  0  0  0
 16 18  1  0  0  0  0
 18 19  2  0  0  0  0
 18 28  1  0  0  0  0
 19 20  1  0  0  0  0
 19 42  1  0  0  0  0
 20 21  2  0  0  0  0
 20 43  1  0  0  0  0
 21 22  1  0  0  0  0
 21 27  1  0  0  0  0
 22 23  2  0  0  0  0
 22 24  1  0  0  0  0
 24 25  2  0  0  0  0
 24 44  1  0  0  0  0
 25 26  1  0  0  0  0
 25 45  1  0  0  0  0
 26 27  1  0  0  0  0
 26 46  1  0  0  0  0
 27 28  2  0  0  0  0
 28 47  1  0  0  0  0
 29 48  1  0  0  0  0
 30 49  1  0  0  0  0
M  END
$$$$
