
 OpenBabel01122422383D

 45 48  0  0  0  0  0  0  0  0999 V2000
    1.0217   -1.8435   -0.3471 C   0  0  0  0  0  0  0  0  0  0  0  0
    2.5103   -2.0098   -0.4139 C   0  0  0  0  0  0  0  0  0  0  0  0
    3.0378   -2.9662   -1.1043 N   0  0  0  0  0  0  0  0  0  0  0  0
    4.4382   -3.0510   -1.1321 C   0  0  0  0  0  0  0  0  0  0  0  0
    5.0331   -4.0493   -1.8915 C   0  0  0  0  0  0  0  0  0  0  0  0
    6.4178   -4.1393   -1.9441 C   0  0  0  0  0  0  0  0  0  0  0  0
    7.1745   -3.2193   -1.2200 C   0  0  0  0  0  0  0  0  0  0  0  0
    8.6612   -3.3173   -1.2977 C   0  0  0  0  0  0  0  0  0  0  0  0
    9.1396   -4.1851   -2.0215 O   0  0  0  0  0  0  0  0  0  0  0  0
    9.3590   -2.4254   -0.5065 N   0  0  0  0  0  0  0  0  0  0  0  0
   10.7632   -2.3099   -0.4537 C   0  0  0  0  0  0  0  0  0  0  0  0
   11.6091   -2.9214   -1.3788 C   0  0  0  0  0  0  0  0  0  0  0  0
   12.9936   -2.8138   -1.2625 C   0  0  0  0  0  0  0  0  0  0  0  0
   13.5688   -2.0871   -0.2185 C   0  0  0  0  0  0  0  0  0  0  0  0
   14.9454   -2.0896   -0.2707 O   0  0  0  0  0  0  0  0  0  0  0  0
   15.6860   -2.0789    0.8825 C   0  0  0  0  0  0  0  0  0  0  0  0
   15.3042   -2.7106    2.0665 C   0  0  0  0  0  0  0  0  0  0  0  0
   16.0170   -2.4563    3.2368 C   0  0  0  0  0  0  0  0  0  0  0  0
   17.1604   -1.6581    3.1989 C   0  0  0  0  0  0  0  0  0  0  0  0
   17.6205   -1.1509    1.9844 C   0  0  0  0  0  0  0  0  0  0  0  0
   16.8838   -1.3656    0.8225 C   0  0  0  0  0  0  0  0  0  0  0  0
   12.7298   -1.4032    0.6784 C   0  0  0  0  0  0  0  0  0  0  0  0
   13.1997   -0.5475    1.7321 C   0  0  0  0  0  0  0  0  0  0  0  0
   13.5019    0.1304    2.6240 N   0  0  0  0  0  0  0  0  0  0  0  0
   11.3303   -1.5385    0.5618 C   0  0  0  0  0  0  0  0  0  0  0  0
    6.6483   -2.2315   -0.4534 N   0  0  0  0  0  0  0  0  0  0  0  0
    5.2877   -2.1790   -0.4492 C   0  0  0  0  0  0  0  0  0  0  0  0
    4.6262   -1.1060    0.3325 C   0  0  0  0  0  0  0  0  0  0  0  0
    5.2512   -0.2679    0.9755 O   0  0  0  0  0  0  0  0  0  0  0  0
    3.2499   -1.0915    0.2845 N   0  0  0  0  0  0  0  0  0  0  0  0
    0.5227   -2.6538   -0.8869 H   0  0  0  0  0  0  0  0  0  0  0  0
    0.7430   -0.8880   -0.7997 H   0  0  0  0  0  0  0  0  0  0  0  0
    0.6953   -1.8536    0.6962 H   0  0  0  0  0  0  0  0  0  0  0  0
    4.4178   -4.7576   -2.4384 H   0  0  0  0  0  0  0  0  0  0  0  0
    6.8950   -4.9121   -2.5407 H   0  0  0  0  0  0  0  0  0  0  0  0
    8.7933   -1.8502    0.1153 H   0  0  0  0  0  0  0  0  0  0  0  0
   11.2269   -3.4855   -2.2235 H   0  0  0  0  0  0  0  0  0  0  0  0
   13.6255   -3.3053   -2.0001 H   0  0  0  0  0  0  0  0  0  0  0  0
   14.4169   -3.3351    2.1101 H   0  0  0  0  0  0  0  0  0  0  0  0
   15.6568   -2.8474    4.1844 H   0  0  0  0  0  0  0  0  0  0  0  0
   17.6898   -1.4265    4.1189 H   0  0  0  0  0  0  0  0  0  0  0  0
   18.5296   -0.5574    1.9489 H   0  0  0  0  0  0  0  0  0  0  0  0
   17.2207   -0.9433   -0.1207 H   0  0  0  0  0  0  0  0  0  0  0  0
   10.6879   -1.0418    1.2885 H   0  0  0  0  0  0  0  0  0  0  0  0
    2.7998   -0.3543    0.8082 H   0  0  0  0  0  0  0  0  0  0  0  0
  1  2  1  0  0  0  0
  1 31  1  0  0  0  0
  1 32  1  0  0  0  0
  1 33  1  0  0  0  0
  2  3  2  0  0  0  0
  2 30  1  0  0  0  0
  3  4  1  0  0  0  0
  4  5  2  0  0  0  0
  4 27  1  0  0  0  0
  5  6  1  0  0  0  0
  5 34  1  0  0  0  0
  6  7  2  0  0  0  0
  6 35  1  0  0  0  0
  7  8  1  0  0  0  0
  7 26  1  0  0  0  0
  8  9  2  0  0  0  0
  8 10  1  0  0  0  0
 10 11  1  0  0  0  0
 10 36  1  0  0  0  0
 11 12  2  0  0  0  0
 11 25  1  0  0  0  0
 12 13  1  0  0  0  0
 12 37  1  0  0  0  0
 13 14  2  0  0  0  0
 13 38  1  0  0  0  0
 14 15  1  0  0  0  0
 14 22  1  0  0  0  0
 15 16  1  0  0  0  0
 16 17  2  0  0  0  0
 16 21  1  0  0  0  0
 17 18  1  0  0  0  0
 17 39  1  0  0  0  0
 18 19  2  0  0  0  0
 18 40  1  0  0  0  0
 19 20  1  0  0  0  0
 19 41  1  0  0  0  0
 20 21  2  0  0  0  0
 20 42  1  0  0  0  0
 21 43  1  0  0  0  0
 22 23  1  0  0  0  0
 22 25  2  0  0  0  0
 23 24  3  0  0  0  0
 25 44  1  0  0  0  0
 26 27  2  0  0  0  0
 27 28  1  0  0  0  0
 28 29  2  0  0  0  0
 28 30  1  0  0  0  0
 30 45  1  0  0  0  0
M  END
$$$$
