
 OpenBabel01122422383D

 45 48  0  0  0  0  0  0  0  0999 V2000
    5.1595   -2.6315   -0.4285 C   0  0  0  0  0  0  0  0  0  0  0  0
    4.4525   -1.3124   -0.1967 C   0  0  0  0  0  0  0  0  0  0  0  0
    5.1919   -0.2493   -0.1634 N   0  0  0  0  0  0  0  0  0  0  0  0
    4.5779    0.9934    0.0220 C   0  0  0  0  0  0  0  0  0  0  0  0
    5.3792    2.1353    0.0979 C   0  0  0  0  0  0  0  0  0  0  0  0
    4.8068    3.3895    0.3320 C   0  0  0  0  0  0  0  0  0  0  0  0
    3.4270    3.5122    0.4888 C   0  0  0  0  0  0  0  0  0  0  0  0
    2.6157    2.3835    0.3884 C   0  0  0  0  0  0  0  0  0  0  0  0
    3.2008    1.1333    0.1467 C   0  0  0  0  0  0  0  0  0  0  0  0
    2.3737   -0.0814    0.0429 C   0  0  0  0  0  0  0  0  0  0  0  0
    1.1533    0.0375    0.0987 O   0  0  0  0  0  0  0  0  0  0  0  0
    3.0715   -1.2913   -0.0797 N   0  0  0  0  0  0  0  0  0  0  0  0
    2.2971   -2.4849   -0.0638 C   0  0  0  0  0  0  0  0  0  0  0  0
    1.3196   -2.6967   -1.0363 C   0  0  0  0  0  0  0  0  0  0  0  0
    0.4980   -3.8261   -0.9772 C   0  0  0  0  0  0  0  0  0  0  0  0
    0.5967   -4.7549    0.0752 C   0  0  0  0  0  0  0  0  0  0  0  0
   -0.3536   -5.8808    0.1902 C   0  0  0  0  0  0  0  0  0  0  0  0
   -0.0154   -7.1157    0.7366 C   0  0  0  0  0  0  0  0  0  0  0  0
   -0.8614   -8.1698    0.8745 N   0  0  0  0  0  0  0  0  0  0  0  0
   -2.1369   -8.0054    0.4760 C   0  0  0  0  0  0  0  0  0  0  0  0
   -2.9385   -9.1334    0.6644 N   0  0  0  0  0  0  0  0  0  0  0  0
   -2.6020   -6.8071   -0.0620 C   0  0  0  0  0  0  0  0  0  0  0  0
   -3.8529   -6.4937   -0.5122 O   0  0  0  0  0  0  0  0  0  0  0  0
   -4.9522   -7.1987    0.0291 C   0  0  0  0  0  0  0  0  0  0  0  0
   -4.7834   -7.3935    1.3644 F   0  0  0  0  0  0  0  0  0  0  0  0
   -6.0331   -6.3843   -0.0912 F   0  0  0  0  0  0  0  0  0  0  0  0
   -1.6865   -5.7625   -0.2216 C   0  0  0  0  0  0  0  0  0  0  0  0
    1.5978   -4.5314    1.0375 C   0  0  0  0  0  0  0  0  0  0  0  0
    2.4430   -3.4160    0.9673 C   0  0  0  0  0  0  0  0  0  0  0  0
    6.1999   -2.4522   -0.7188 H   0  0  0  0  0  0  0  0  0  0  0  0
    4.6753   -3.1951   -1.2297 H   0  0  0  0  0  0  0  0  0  0  0  0
    5.1672   -3.2208    0.4911 H   0  0  0  0  0  0  0  0  0  0  0  0
    6.4551    2.0443   -0.0193 H   0  0  0  0  0  0  0  0  0  0  0  0
    5.4449    4.2700    0.3985 H   0  0  0  0  0  0  0  0  0  0  0  0
    2.9833    4.4860    0.6893 H   0  0  0  0  0  0  0  0  0  0  0  0
    1.5401    2.4760    0.5079 H   0  0  0  0  0  0  0  0  0  0  0  0
    1.1792   -1.9810   -1.8435 H   0  0  0  0  0  0  0  0  0  0  0  0
   -0.2421   -3.9531   -1.7647 H   0  0  0  0  0  0  0  0  0  0  0  0
    0.9906   -7.3171    1.0965 H   0  0  0  0  0  0  0  0  0  0  0  0
   -2.3102   -9.8400    1.0532 H   0  0  0  0  0  0  0  0  0  0  0  0
   -3.6530   -8.9172    1.3586 H   0  0  0  0  0  0  0  0  0  0  0  0
   -5.1578   -8.1388   -0.4907 H   0  0  0  0  0  0  0  0  0  0  0  0
   -2.0509   -4.8288   -0.6446 H   0  0  0  0  0  0  0  0  0  0  0  0
    1.7055   -5.1969    1.8922 H   0  0  0  0  0  0  0  0  0  0  0  0
    3.1636   -3.2531    1.7656 H   0  0  0  0  0  0  0  0  0  0  0  0
  1  2  1  0  0  0  0
  1 30  1  0  0  0  0
  1 31  1  0  0  0  0
  1 32  1  0  0  0  0
  2  3  2  0  0  0  0
  2 12  1  0  0  0  0
  3  4  1  0  0  0  0
  4  5  2  0  0  0  0
  4  9  1  0  0  0  0
  5  6  1  0  0  0  0
  5 33  1  0  0  0  0
  6  7  2  0  0  0  0
  6 34  1  0  0  0  0
  7  8  1  0  0  0  0
  7 35  1  0  0  0  0
  8  9  2  0  0  0  0
  8 36  1  0  0  0  0
  9 10  1  0  0  0  0
 10 11  2  0  0  0  0
 10 12  1  0  0  0  0
 12 13  1  0  0  0  0
 13 14  2  0  0  0  0
 13 29  1  0  0  0  0
 14 15  1  0  0  0  0
 14 37  1  0  0  0  0
 15 16  2  0  0  0  0
 15 38  1  0  0  0  0
 16 17  1  0  0  0  0
 16 28  1  0  0  0  0
 17 18  2  0  0  0  0
 17 27  1  0  0  0  0
 18 19  1  0  0  0  0
 18 39  1  0  0  0  0
 19 20  2  0  0  0  0
 20 21  1  0  0  0  0
 20 22  1  0  0  0  0
 21 40  1  0  0  0  0
 21 41  1  0  0  0  0
 22 23  1  0  0  0  0
 22 27  2  0  0  0  0
 23 24  1  0  0  0  0
 24 25  1  0  0  0  0
 24 26  1  0  0  0  0
 24 42  1  0  0  0  0
 27 43  1  0  0  0  0
 28 29  2  0  0  0  0
 28 44  1  0  0  0  0
 29 45  1  0  0  0  0
M  END
$$$$
