
 OpenBabel01122422383D

 44 47  0  0  0  0  0  0  0  0999 V2000
    2.5849    0.3400    1.1027 O   0  0  0  0  0  0  0  0  0  0  0  0
    3.5830   -0.0024    0.5061 C   0  0  0  0  0  0  0  0  0  0  0  0
    3.7288   -1.1343   -0.2408 N   0  0  0  0  0  0  0  0  0  0  0  0
    2.8271   -1.9613   -0.6915 C   0  0  0  0  0  0  0  0  0  0  0  0
    3.5831   -3.1143   -1.3482 C   0  0  0  0  0  0  0  0  0  0  0  0
    2.9332   -4.2094   -1.7667 C   0  0  0  0  0  0  0  0  0  0  0  0
    1.5061   -4.3180   -1.6334 C   0  0  0  0  0  0  0  0  0  0  0  0
    0.8299   -3.2772   -1.1465 C   0  0  0  0  0  0  0  0  0  0  0  0
    1.4068   -2.0672   -0.7083 N   0  0  0  0  0  0  0  0  0  0  0  0
    0.4551   -1.0078   -0.3195 C   0  0  0  0  0  0  0  0  0  0  0  0
   -0.1887   -1.2865    1.0301 C   0  0  0  0  0  0  0  0  0  0  0  0
    0.6025   -1.6589    2.1260 C   0  0  0  0  0  0  0  0  0  0  0  0
    0.0401   -1.8904    3.3771 C   0  0  0  0  0  0  0  0  0  0  0  0
   -1.3324   -1.7622    3.5557 C   0  0  0  0  0  0  0  0  0  0  0  0
   -2.1420   -1.3992    2.4812 C   0  0  0  0  0  0  0  0  0  0  0  0
   -1.5754   -1.1559    1.2251 C   0  0  0  0  0  0  0  0  0  0  0  0
    4.7358    0.9706    0.4537 C   0  0  0  0  0  0  0  0  0  0  0  0
    5.9583    0.6706   -0.1780 C   0  0  0  0  0  0  0  0  0  0  0  0
    6.6469    1.7039   -0.8134 C   0  0  0  0  0  0  0  0  0  0  0  0
    6.0423    2.9621   -0.8366 C   0  0  0  0  0  0  0  0  0  0  0  0
    6.0961    3.6783   -2.0531 N   0  0  0  0  0  0  0  0  0  0  0  0
    6.7437    3.1508   -3.1468 C   0  0  0  0  0  0  0  0  0  0  0  0
    6.4682    3.4413   -4.3032 O   0  0  0  0  0  0  0  0  0  0  0  0
    7.8575    2.2225   -2.8215 C   0  0  0  0  0  0  0  0  0  0  0  0
    7.8157    1.5241   -1.6766 C   0  0  0  0  0  0  0  0  0  0  0  0
    5.1041    3.3062    0.1224 C   0  0  0  0  0  0  0  0  0  0  0  0
    4.6931    4.5744    0.2512 F   0  0  0  0  0  0  0  0  0  0  0  0
    4.4427    2.2992    0.7944 C   0  0  0  0  0  0  0  0  0  0  0  0
    4.6565   -3.0232   -1.4359 H   0  0  0  0  0  0  0  0  0  0  0  0
    3.4685   -5.0454   -2.1977 H   0  0  0  0  0  0  0  0  0  0  0  0
    1.0091   -5.2272   -1.9455 H   0  0  0  0  0  0  0  0  0  0  0  0
   -0.2537   -3.3150   -1.0510 H   0  0  0  0  0  0  0  0  0  0  0  0
   -0.3514   -0.9986   -1.0728 H   0  0  0  0  0  0  0  0  0  0  0  0
    0.8726   -0.0034   -0.3805 H   0  0  0  0  0  0  0  0  0  0  0  0
    1.6782   -1.7672    2.0132 H   0  0  0  0  0  0  0  0  0  0  0  0
    0.6841   -2.1687    4.2048 H   0  0  0  0  0  0  0  0  0  0  0  0
   -1.7667   -1.9489    4.5336 H   0  0  0  0  0  0  0  0  0  0  0  0
   -3.2155   -1.3039    2.6270 H   0  0  0  0  0  0  0  0  0  0  0  0
   -2.2317   -0.8654    0.4075 H   0  0  0  0  0  0  0  0  0  0  0  0
    6.2747   -0.3603   -0.3161 H   0  0  0  0  0  0  0  0  0  0  0  0
    5.3301    4.3124   -2.2541 H   0  0  0  0  0  0  0  0  0  0  0  0
    8.6692    2.1710   -3.5343 H   0  0  0  0  0  0  0  0  0  0  0  0
    8.6403    0.8988   -1.3539 H   0  0  0  0  0  0  0  0  0  0  0  0
    3.5885    2.5543    1.4135 H   0  0  0  0  0  0  0  0  0  0  0  0
  1  2  2  0  0  0  0
  2  3  1  0  0  0  0
  2 17  1  0  0  0  0
  3  4  2  3  0  0  0
  4  5  1  0  0  0  0
  4  9  1  0  0  0  0
  5  6  2  0  0  0  0
  5 29  1  0  0  0  0
  6  7  1  0  0  0  0
  6 30  1  0  0  0  0
  7  8  2  0  0  0  0
  7 31  1  0  0  0  0
  8  9  1  0  0  0  0
  8 32  1  0  0  0  0
  9 10  1  0  0  0  0
 10 11  1  0  0  0  0
 10 33  1  0  0  0  0
 10 34  1  0  0  0  0
 11 12  2  0  0  0  0
 11 16  1  0  0  0  0
 12 13  1  0  0  0  0
 12 35  1  0  0  0  0
 13 14  2  0  0  0  0
 13 36  1  0  0  0  0
 14 15  1  0  0  0  0
 14 37  1  0  0  0  0
 15 16  2  0  0  0  0
 15 38  1  0  0  0  0
 16 39  1  0  0  0  0
 17 18  2  0  0  0  0
 17 28  1  0  0  0  0
 18 19  1  0  0  0  0
 18 40  1  0  0  0  0
 19 20  2  0  0  0  0
 19 25  1  0  0  0  0
 20 21  1  0  0  0  0
 20 26  1  0  0  0  0
 21 22  1  0  0  0  0
 21 41  1  0  0  0  0
 22 23  2  0  0  0  0
 22 24  1  0  0  0  0
 24 25  2  0  0  0  0
 24 42  1  0  0  0  0
 25 43  1  0  0  0  0
 26 27  1  0  0  0  0
 26 28  2  0  0  0  0
 28 44  1  0  0  0  0
M  END
$$$$
