
 OpenBabel01122422353D

 41 43  0  0  0  0  0  0  0  0999 V2000
    0.9413   -0.0616   -0.0525 N   0  0  0  0  0  0  0  0  0  0  0  0
    2.2023   -0.0616   -0.0525 C   0  0  0  0  0  0  0  0  0  0  0  0
    3.7223   -0.0616   -0.0525 C   0  0  0  0  0  0  0  0  0  0  0  0
    4.3944    1.1053    0.1285 C   0  0  0  0  0  0  0  0  0  0  0  0
    3.7401    2.3392    0.2670 N   0  0  0  0  0  0  0  0  0  0  0  0
    4.2823    3.6119    0.4250 C   0  0  0  0  0  0  0  0  0  0  0  0
    5.4847    3.8724    0.3804 O   0  0  0  0  0  0  0  0  0  0  0  0
    3.2877    4.7713    0.5574 C   0  0  0  0  0  0  0  0  0  0  0  0
    1.7396    4.3130    1.3997 S   0  0  0  0  0  0  0  0  0  0  0  0
    0.8351    5.8610    1.5281 C   0  0  0  0  0  0  0  0  0  0  0  0
   -0.4349    5.7920    2.1357 C   0  0  0  0  0  0  0  0  0  0  0  0
   -1.2325    6.9329    2.2882 C   0  0  0  0  0  0  0  0  0  0  0  0
   -0.7670    8.1560    1.8357 C   0  0  0  0  0  0  0  0  0  0  0  0
   -1.5273    9.2506    1.9752 F   0  0  0  0  0  0  0  0  0  0  0  0
    0.4821    8.2440    1.2393 C   0  0  0  0  0  0  0  0  0  0  0  0
    0.9364    9.4276    0.8036 F   0  0  0  0  0  0  0  0  0  0  0  0
    1.2858    7.1094    1.0833 C   0  0  0  0  0  0  0  0  0  0  0  0
    5.8393    1.0278    0.2268 C   0  0  0  0  0  0  0  0  0  0  0  0
    6.4781   -0.1460    0.1738 C   0  0  0  0  0  0  0  0  0  0  0  0
    5.8023   -1.3449    0.0299 N   0  0  0  0  0  0  0  0  0  0  0  0
    6.5143   -2.5793   -0.0431 C   0  0  0  0  0  0  0  0  0  0  0  0
    7.6058   -2.7041   -0.9099 C   0  0  0  0  0  0  0  0  0  0  0  0
    8.2368   -3.9421   -1.0610 C   0  0  0  0  0  0  0  0  0  0  0  0
    7.8071   -5.0403   -0.3199 C   0  0  0  0  0  0  0  0  0  0  0  0
    6.7529   -4.9084    0.5829 C   0  0  0  0  0  0  0  0  0  0  0  0
    6.1015   -3.6848    0.7126 C   0  0  0  0  0  0  0  0  0  0  0  0
    4.4062   -1.3768   -0.1028 C   0  0  0  0  0  0  0  0  0  0  0  0
    3.7266   -2.3895   -0.2810 O   0  0  0  0  0  0  0  0  0  0  0  0
    2.7209    2.3321    0.2917 H   0  0  0  0  0  0  0  0  0  0  0  0
    3.0742    5.1537   -0.4446 H   0  0  0  0  0  0  0  0  0  0  0  0
    3.7834    5.5514    1.1477 H   0  0  0  0  0  0  0  0  0  0  0  0
   -0.8168    4.8392    2.4990 H   0  0  0  0  0  0  0  0  0  0  0  0
   -2.2101    6.8661    2.7565 H   0  0  0  0  0  0  0  0  0  0  0  0
    2.2524    7.2471    0.6143 H   0  0  0  0  0  0  0  0  0  0  0  0
    6.4392    1.9152    0.3849 H   0  0  0  0  0  0  0  0  0  0  0  0
    7.5578   -0.1899    0.2945 H   0  0  0  0  0  0  0  0  0  0  0  0
    7.9249   -1.8711   -1.5289 H   0  0  0  0  0  0  0  0  0  0  0  0
    9.0388   -4.0526   -1.7837 H   0  0  0  0  0  0  0  0  0  0  0  0
    8.2873   -6.0060   -0.4512 H   0  0  0  0  0  0  0  0  0  0  0  0
    6.4232   -5.7611    1.1703 H   0  0  0  0  0  0  0  0  0  0  0  0
    5.2752   -3.5979    1.4152 H   0  0  0  0  0  0  0  0  0  0  0  0
  1  2  3  0  0  0  0
  2  3  1  0  0  0  0
  3  4  2  0  0  0  0
  3 27  1  0  0  0  0
  4  5  1  0  0  0  0
  4 18  1  0  0  0  0
  5  6  1  0  0  0  0
  5 29  1  0  0  0  0
  6  7  2  0  0  0  0
  6  8  1  0  0  0  0
  8  9  1  0  0  0  0
  8 30  1  0  0  0  0
  8 31  1  0  0  0  0
  9 10  1  0  0  0  0
 10 11  2  0  0  0  0
 10 17  1  0  0  0  0
 11 12  1  0  0  0  0
 11 32  1  0  0  0  0
 12 13  2  0  0  0  0
 12 33  1  0  0  0  0
 13 14  1  0  0  0  0
 13 15  1  0  0  0  0
 15 16  1  0  0  0  0
 15 17  2  0  0  0  0
 17 34  1  0  0  0  0
 18 19  2  0  0  0  0
 18 35  1  0  0  0  0
 19 20  1  0  0  0  0
 19 36  1  0  0  0  0
 20 21  1  0  0  0  0
 20 27  1  0  0  0  0
 21 22  2  0  0  0  0
 21 26  1  0  0  0  0
 22 23  1  0  0  0  0
 22 37  1  0  0  0  0
 23 24  2  0  0  0  0
 23 38  1  0  0  0  0
 24 25  1  0  0  0  0
 24 39  1  0  0  0  0
 25 26  2  0  0  0  0
 25 40  1  0  0  0  0
 26 41  1  0  0  0  0
 27 28  2  0  0  0  0
M  END
$$$$
