
 OpenBabel01122422383D

 42 45  0  0  1  0  0  0  0  0999 V2000
    1.0694   -1.8436   -1.2300 O   0  0  0  0  0  0  0  0  0  0  0  0
    2.4191   -1.8841   -1.2111 C   0  0  0  0  0  0  0  0  0  0  0  0
    2.9615   -2.9344   -1.8397 N   0  0  0  0  0  0  0  0  0  0  0  0
    4.2948   -2.9591   -1.7833 C   0  0  0  0  0  0  0  0  0  0  0  0
    4.8472   -4.0277   -2.4145 O   0  0  0  0  0  0  0  0  0  0  0  0
    5.0939   -2.0163   -1.1413 C   0  0  0  0  0  0  0  0  0  0  0  0
    6.5060   -2.0643   -1.0833 C   0  0  0  0  0  0  0  0  0  0  0  0
    7.2379   -1.0823   -0.3931 C   0  0  0  0  0  0  0  0  0  0  0  0
    8.7096   -1.1397   -0.3196 C   0  0  0  0  0  0  0  0  0  0  0  0
    9.4758   -1.5815   -1.4119 C   0  0  0  0  0  0  0  0  0  0  0  0
   10.8572   -1.7088   -1.3094 C   0  0  0  0  0  0  0  0  0  0  0  0
   11.4843   -1.4313   -0.0995 C   0  0  0  0  0  0  0  0  0  0  0  0
   12.8043   -1.6382   -0.0065 F   0  0  0  0  0  0  0  0  0  0  0  0
   10.7684   -1.0106    1.0252 C   0  0  0  0  0  0  0  0  0  0  0  0
   11.4261   -0.8630    2.3915 C   0  0  3  0  0  0  0  0  0  0  0  0
   12.4671   -1.8248    2.5794 O   0  0  0  0  0  0  0  0  0  0  0  0
   11.9597    0.5273    2.6796 C   0  0  0  0  0  0  0  0  0  0  0  0
   11.1425    1.4862    3.3012 C   0  0  0  0  0  0  0  0  0  0  0  0
   11.5613    2.8143    3.4112 C   0  0  0  0  0  0  0  0  0  0  0  0
   12.8169    3.1920    2.9409 C   0  0  0  0  0  0  0  0  0  0  0  0
   13.6745    2.2339    2.4076 C   0  0  0  0  0  0  0  0  0  0  0  0
   13.2499    0.9109    2.2788 C   0  0  0  0  0  0  0  0  0  0  0  0
    9.3857   -0.8074    0.8762 C   0  0  0  0  0  0  0  0  0  0  0  0
    6.5060   -0.0693    0.2401 C   0  0  0  0  0  0  0  0  0  0  0  0
    5.1129   -0.0231    0.1652 C   0  0  0  0  0  0  0  0  0  0  0  0
    4.3878   -0.9877   -0.5231 C   0  0  0  0  0  0  0  0  0  0  0  0
    3.0534   -0.9082   -0.5592 N   0  0  0  0  0  0  0  0  0  0  0  0
    0.8868   -2.6722   -1.7020 H   0  0  0  0  0  0  0  0  0  0  0  0
    4.0514   -4.4939   -2.7228 H   0  0  0  0  0  0  0  0  0  0  0  0
    7.0166   -2.8920   -1.5738 H   0  0  0  0  0  0  0  0  0  0  0  0
    9.0005   -1.8402   -2.3562 H   0  0  0  0  0  0  0  0  0  0  0  0
   11.4461   -2.0620   -2.1500 H   0  0  0  0  0  0  0  0  0  0  0  0
   10.6813   -1.1156    3.1582 H   0  0  0  0  0  0  0  0  0  0  0  0
   12.9203   -1.9182    1.7216 H   0  0  0  0  0  0  0  0  0  0  0  0
   10.1643    1.2106    3.6889 H   0  0  0  0  0  0  0  0  0  0  0  0
   10.8994    3.5596    3.8447 H   0  0  0  0  0  0  0  0  0  0  0  0
   13.1279    4.2320    2.9892 H   0  0  0  0  0  0  0  0  0  0  0  0
   14.6670    2.5183    2.0686 H   0  0  0  0  0  0  0  0  0  0  0  0
   13.9326    0.1823    1.8479 H   0  0  0  0  0  0  0  0  0  0  0  0
    8.8153   -0.4403    1.7282 H   0  0  0  0  0  0  0  0  0  0  0  0
    7.0194    0.7058    0.8100 H   0  0  0  0  0  0  0  0  0  0  0  0
    4.5822    0.7871    0.6589 H   0  0  0  0  0  0  0  0  0  0  0  0
  1  2  1  0  0  0  0
  1 28  1  0  0  0  0
  2  3  2  0  0  0  0
  2 27  1  0  0  0  0
  3  4  1  0  0  0  0
  4  5  1  0  0  0  0
  4  6  2  0  0  0  0
  5 29  1  0  0  0  0
  6  7  1  0  0  0  0
  6 26  1  0  0  0  0
  7  8  2  0  0  0  0
  7 30  1  0  0  0  0
  8  9  1  0  0  0  0
  8 24  1  0  0  0  0
  9 10  2  0  0  0  0
  9 23  1  0  0  0  0
 10 11  1  0  0  0  0
 10 31  1  0  0  0  0
 11 12  2  0  0  0  0
 11 32  1  0  0  0  0
 12 13  1  0  0  0  0
 12 14  1  0  0  0  0
 14 15  1  0  0  0  0
 14 23  2  0  0  0  0
 15 16  1  0  0  0  0
 15 17  1  0  0  0  0
 15 33  1  0  0  0  0
 16 34  1  0  0  0  0
 17 18  2  0  0  0  0
 17 22  1  0  0  0  0
 18 19  1  0  0  0  0
 18 35  1  0  0  0  0
 19 20  2  0  0  0  0
 19 36  1  0  0  0  0
 20 21  1  0  0  0  0
 20 37  1  0  0  0  0
 21 22  2  0  0  0  0
 21 38  1  0  0  0  0
 22 39  1  0  0  0  0
 23 40  1  0  0  0  0
 24 25  2  0  0  0  0
 24 41  1  0  0  0  0
 25 26  1  0  0  0  0
 25 42  1  0  0  0  0
 26 27  2  0  0  0  0
M  END
$$$$
