
 OpenBabel01122422383D

 39 42  0  0  0  0  0  0  0  0999 V2000
    0.9287   -0.1062   -0.0900 O   0  0  0  0  0  0  0  0  0  0  0  0
    2.1437    0.0053    0.0622 C   0  0  0  0  0  0  0  0  0  0  0  0
    2.8539   -0.3253    1.2092 N   0  0  0  0  0  0  0  0  0  0  0  0
    2.2584   -0.8498    2.3614 C   0  0  0  0  0  0  0  0  0  0  0  0
    1.0181   -1.3593    2.2822 N   0  0  0  0  0  0  0  0  0  0  0  0
    0.4088   -1.8193    3.3815 C   0  0  0  0  0  0  0  0  0  0  0  0
   -0.8663   -2.3517    3.2668 C   0  0  0  0  0  0  0  0  0  0  0  0
   -1.5574   -2.8487    4.3750 C   0  0  0  0  0  0  0  0  0  0  0  0
   -0.9758   -2.8089    5.6458 C   0  0  0  0  0  0  0  0  0  0  0  0
   -1.7085   -3.3485    6.8504 C   0  0  0  0  0  0  0  0  0  0  0  0
   -2.9410   -3.8511    6.5591 F   0  0  0  0  0  0  0  0  0  0  0  0
   -1.0300   -4.3597    7.4603 F   0  0  0  0  0  0  0  0  0  0  0  0
   -1.9089   -2.4021    7.8084 F   0  0  0  0  0  0  0  0  0  0  0  0
    0.3144   -2.2661    5.7747 C   0  0  0  0  0  0  0  0  0  0  0  0
    1.0140   -1.7845    4.6474 C   0  0  0  0  0  0  0  0  0  0  0  0
    2.3166   -1.2673    4.7183 C   0  0  0  0  0  0  0  0  0  0  0  0
    2.9555   -0.8147    3.5600 C   0  0  0  0  0  0  0  0  0  0  0  0
    2.9749    0.6325   -0.9886 C   0  0  0  0  0  0  0  0  0  0  0  0
    4.3100    0.7548   -0.8807 N   0  0  0  0  0  0  0  0  0  0  0  0
    4.6196    1.5485   -1.9403 N   0  0  0  0  0  0  0  0  0  0  0  0
    5.9243    2.0363   -2.1930 C   0  0  0  0  0  0  0  0  0  0  0  0
    6.0914    2.9474   -3.2027 N   0  0  0  0  0  0  0  0  0  0  0  0
    7.3493    3.4059   -3.4107 C   0  0  0  0  0  0  0  0  0  0  0  0
    8.4518    2.9931   -2.6786 C   0  0  0  0  0  0  0  0  0  0  0  0
    8.2594    2.0654   -1.6621 C   0  0  0  0  0  0  0  0  0  0  0  0
    6.9792    1.5916   -1.4069 C   0  0  0  0  0  0  0  0  0  0  0  0
    6.8274    0.7085   -0.4099 F   0  0  0  0  0  0  0  0  0  0  0  0
    3.4872    1.8239   -2.6611 C   0  0  0  0  0  0  0  0  0  0  0  0
    2.4498    1.2409   -2.1102 N   0  0  0  0  0  0  0  0  0  0  0  0
    3.8322   -0.0547    1.2249 H   0  0  0  0  0  0  0  0  0  0  0  0
   -1.3317   -2.3828    2.2829 H   0  0  0  0  0  0  0  0  0  0  0  0
   -2.5526   -3.2680    4.2314 H   0  0  0  0  0  0  0  0  0  0  0  0
    0.7809   -2.2276    6.7585 H   0  0  0  0  0  0  0  0  0  0  0  0
    2.8341   -1.2071    5.6726 H   0  0  0  0  0  0  0  0  0  0  0  0
    3.9587   -0.4080    3.6216 H   0  0  0  0  0  0  0  0  0  0  0  0
    7.4552    4.1373   -4.2088 H   0  0  0  0  0  0  0  0  0  0  0  0
    9.4416    3.3812   -2.8939 H   0  0  0  0  0  0  0  0  0  0  0  0
    9.0891    1.7030   -1.0652 H   0  0  0  0  0  0  0  0  0  0  0  0
    3.4785    2.4489   -3.5442 H   0  0  0  0  0  0  0  0  0  0  0  0
  1  2  2  0  0  0  0
  2  3  1  0  0  0  0
  2 18  1  0  0  0  0
  3  4  1  0  0  0  0
  3 30  1  0  0  0  0
  4  5  2  0  0  0  0
  4 17  1  0  0  0  0
  5  6  1  0  0  0  0
  6  7  2  0  0  0  0
  6 15  1  0  0  0  0
  7  8  1  0  0  0  0
  7 31  1  0  0  0  0
  8  9  2  0  0  0  0
  8 32  1  0  0  0  0
  9 10  1  0  0  0  0
  9 14  1  0  0  0  0
 10 11  1  0  0  0  0
 10 12  1  0  0  0  0
 10 13  1  0  0  0  0
 14 15  2  0  0  0  0
 14 33  1  0  0  0  0
 15 16  1  0  0  0  0
 16 17  2  0  0  0  0
 16 34  1  0  0  0  0
 17 35  1  0  0  0  0
 18 19  2  0  0  0  0
 18 29  1  0  0  0  0
 19 20  1  0  0  0  0
 20 21  1  0  0  0  0
 20 28  1  0  0  0  0
 21 22  2  0  0  0  0
 21 26  1  0  0  0  0
 22 23  1  0  0  0  0
 23 24  2  0  0  0  0
 23 36  1  0  0  0  0
 24 25  1  0  0  0  0
 24 37  1  0  0  0  0
 25 26  2  0  0  0  0
 25 38  1  0  0  0  0
 26 27  1  0  0  0  0
 28 29  2  0  0  0  0
 28 39  1  0  0  0  0
M  END
$$$$
