
 OpenBabel01122422383D

 49 52  0  0  0  0  0  0  0  0999 V2000
    2.7021   -0.5189   -0.9509 O   0  0  0  0  0  0  0  0  0  0  0  0
    2.1293    0.0491   -0.0227 C   0  0  0  0  0  0  0  0  0  0  0  0
    0.6037    0.1132    0.0728 C   0  0  0  0  0  0  0  0  0  0  0  0
    0.0592    1.2006   -0.7168 N   0  0  0  0  0  0  0  0  0  0  0  0
   -0.1002    2.4482   -0.1560 C   0  0  0  0  0  0  0  0  0  0  0  0
    0.2143    2.6695    1.0118 O   0  0  0  0  0  0  0  0  0  0  0  0
   -0.6620    3.5251   -1.0178 C   0  0  0  0  0  0  0  0  0  0  0  0
   -1.5533    3.2366   -2.0699 C   0  0  0  0  0  0  0  0  0  0  0  0
   -2.1180    4.2598   -2.8340 C   0  0  0  0  0  0  0  0  0  0  0  0
   -1.8193    5.6006   -2.5779 C   0  0  0  0  0  0  0  0  0  0  0  0
   -0.9366    5.8797   -1.5295 C   0  0  0  0  0  0  0  0  0  0  0  0
   -0.3522    4.8813   -0.7422 C   0  0  0  0  0  0  0  0  0  0  0  0
    0.4729    5.5522    0.2121 C   0  0  0  0  0  0  0  0  0  0  0  0
    0.3653    6.9066   -0.0043 C   0  0  0  0  0  0  0  0  0  0  0  0
   -0.4861    7.0938   -1.0582 N   0  0  0  0  0  0  0  0  0  0  0  0
    2.7905    0.7363    0.9654 N   0  0  0  0  0  0  0  0  0  0  0  0
    4.2315    0.8906    0.9368 C   0  0  0  0  0  0  0  0  0  0  0  0
    4.7610    1.7911    2.0401 C   0  0  0  0  0  0  0  0  0  0  0  0
    3.7755    2.3829    2.7893 N   0  0  0  0  0  0  0  0  0  0  0  0
    4.1309    3.1540    3.8311 C   0  0  0  0  0  0  0  0  0  0  0  0
    5.4402    3.3807    4.1849 C   0  0  0  0  0  0  0  0  0  0  0  0
    6.4408    2.8052    3.4026 C   0  0  0  0  0  0  0  0  0  0  0  0
    6.1421    1.9907    2.2864 C   0  0  0  0  0  0  0  0  0  0  0  0
    7.2599    1.4000    1.4867 C   0  0  0  0  0  0  0  0  0  0  0  0
    8.4795    1.0191    2.0904 C   0  0  0  0  0  0  0  0  0  0  0  0
    9.5218    0.4391    1.3533 C   0  0  0  0  0  0  0  0  0  0  0  0
    9.3513    0.1932    0.0008 C   0  0  0  0  0  0  0  0  0  0  0  0
   10.3273   -0.3970   -0.6997 F   0  0  0  0  0  0  0  0  0  0  0  0
    8.1843    0.5710   -0.6362 C   0  0  0  0  0  0  0  0  0  0  0  0
    7.1771    1.2100    0.0938 C   0  0  0  0  0  0  0  0  0  0  0  0
    0.3068    0.2190    1.1247 H   0  0  0  0  0  0  0  0  0  0  0  0
    0.1898   -0.8242   -0.3027 H   0  0  0  0  0  0  0  0  0  0  0  0
    0.0586    1.1034   -1.7240 H   0  0  0  0  0  0  0  0  0  0  0  0
   -1.8451    2.2122   -2.2811 H   0  0  0  0  0  0  0  0  0  0  0  0
   -2.8167    4.0147   -3.6314 H   0  0  0  0  0  0  0  0  0  0  0  0
   -2.2709    6.3934   -3.1672 H   0  0  0  0  0  0  0  0  0  0  0  0
    1.0715    5.0837    0.9815 H   0  0  0  0  0  0  0  0  0  0  0  0
    0.8171    7.7464    0.5061 H   0  0  0  0  0  0  0  0  0  0  0  0
   -0.7553    7.9921   -1.4349 H   0  0  0  0  0  0  0  0  0  0  0  0
    2.2836    1.4486    1.4932 H   0  0  0  0  0  0  0  0  0  0  0  0
    4.4463    1.3276   -0.0390 H   0  0  0  0  0  0  0  0  0  0  0  0
    4.6745   -0.1084    1.0095 H   0  0  0  0  0  0  0  0  0  0  0  0
    3.3077    3.5914    4.3881 H   0  0  0  0  0  0  0  0  0  0  0  0
    5.6825    3.9965    5.0438 H   0  0  0  0  0  0  0  0  0  0  0  0
    7.4715    3.0144    3.6818 H   0  0  0  0  0  0  0  0  0  0  0  0
    8.6450    1.1638    3.1563 H   0  0  0  0  0  0  0  0  0  0  0  0
   10.4581    0.1693    1.8314 H   0  0  0  0  0  0  0  0  0  0  0  0
    8.0578    0.3830   -1.6977 H   0  0  0  0  0  0  0  0  0  0  0  0
    6.3311    1.5706   -0.4785 H   0  0  0  0  0  0  0  0  0  0  0  0
  1  2  2  0  0  0  0
  2  3  1  0  0  0  0
  2 16  1  0  0  0  0
  3  4  1  0  0  0  0
  3 31  1  0  0  0  0
  3 32  1  0  0  0  0
  4  5  1  0  0  0  0
  4 33  1  0  0  0  0
  5  6  2  0  0  0  0
  5  7  1  0  0  0  0
  7  8  2  0  0  0  0
  7 12  1  0  0  0  0
  8  9  1  0  0  0  0
  8 34  1  0  0  0  0
  9 10  2  0  0  0  0
  9 35  1  0  0  0  0
 10 11  1  0  0  0  0
 10 36  1  0  0  0  0
 11 12  2  0  0  0  0
 11 15  1  0  0  0  0
 12 13  1  0  0  0  0
 13 14  2  0  0  0  0
 13 37  1  0  0  0  0
 14 15  1  0  0  0  0
 14 38  1  0  0  0  0
 15 39  1  0  0  0  0
 16 17  1  0  0  0  0
 16 40  1  0  0  0  0
 17 18  1  0  0  0  0
 17 41  1  0  0  0  0
 17 42  1  0  0  0  0
 18 19  2  0  0  0  0
 18 23  1  0  0  0  0
 19 20  1  0  0  0  0
 20 21  2  0  0  0  0
 20 43  1  0  0  0  0
 21 22  1  0  0  0  0
 21 44  1  0  0  0  0
 22 23  2  0  0  0  0
 22 45  1  0  0  0  0
 23 24  1  0  0  0  0
 24 25  2  0  0  0  0
 24 30  1  0  0  0  0
 25 26  1  0  0  0  0
 25 46  1  0  0  0  0
 26 27  2  0  0  0  0
 26 47  1  0  0  0  0
 27 28  1  0  0  0  0
 27 29  1  0  0  0  0
 29 30  2  0  0  0  0
 29 48  1  0  0  0  0
 30 49  1  0  0  0  0
M  END
$$$$
