
 OpenBabel01122422383D

 44 47  0  0  0  0  0  0  0  0999 V2000
    1.1465   -0.1021   -0.1967 O   0  0  0  0  0  0  0  0  0  0  0  0
    2.3613    0.0594   -0.1158 C   0  0  0  0  0  0  0  0  0  0  0  0
    2.9935    1.1439   -0.6654 N   0  0  0  0  0  0  0  0  0  0  0  0
    2.2539    2.1891   -1.3287 C   0  0  0  0  0  0  0  0  0  0  0  0
    3.1732    3.2142   -1.8977 C   0  0  0  0  0  0  0  0  0  0  0  0
    4.3257    3.5445   -1.2929 N   0  0  0  0  0  0  0  0  0  0  0  0
    4.8783    4.5525   -2.0658 O   0  0  0  0  0  0  0  0  0  0  0  0
    4.0593    4.8261   -3.1202 C   0  0  0  0  0  0  0  0  0  0  0  0
    4.4497    5.9103   -4.0038 C   0  0  0  0  0  0  0  0  0  0  0  0
    5.6379    6.6191   -3.8577 C   0  0  0  0  0  0  0  0  0  0  0  0
    5.8854    7.6921   -4.7111 C   0  0  0  0  0  0  0  0  0  0  0  0
    4.9482    8.0205   -5.6833 C   0  0  0  0  0  0  0  0  0  0  0  0
    3.8011    7.2510   -5.7724 C   0  0  0  0  0  0  0  0  0  0  0  0
    3.5317    6.2068   -4.9591 N   0  0  0  0  0  0  0  0  0  0  0  0
    2.9749    3.9831   -3.0659 C   0  0  0  0  0  0  0  0  0  0  0  0
    3.2012   -0.9529    0.5774 C   0  0  0  0  0  0  0  0  0  0  0  0
    2.5787   -2.0957    1.1025 C   0  0  0  0  0  0  0  0  0  0  0  0
    3.3190   -3.1169    1.7231 C   0  0  0  0  0  0  0  0  0  0  0  0
    2.6796   -4.3373    2.2666 C   0  0  0  0  0  0  0  0  0  0  0  0
    1.5174   -4.8788    1.6807 C   0  0  0  0  0  0  0  0  0  0  0  0
    0.8941   -6.0197    2.2022 C   0  0  0  0  0  0  0  0  0  0  0  0
    1.4243   -6.6600    3.3176 C   0  0  0  0  0  0  0  0  0  0  0  0
    2.5772   -6.1580    3.9103 C   0  0  0  0  0  0  0  0  0  0  0  0
    3.1858   -5.0142    3.3915 C   0  0  0  0  0  0  0  0  0  0  0  0
    4.2816   -4.5632    4.0219 F   0  0  0  0  0  0  0  0  0  0  0  0
    4.7005   -2.9001    1.7799 C   0  0  0  0  0  0  0  0  0  0  0  0
    5.3446   -1.8003    1.3106 N   0  0  0  0  0  0  0  0  0  0  0  0
    4.5730   -0.8659    0.7296 C   0  0  0  0  0  0  0  0  0  0  0  0
    5.3021    0.1975    0.3077 O   0  0  0  0  0  0  0  0  0  0  0  0
    3.9875    1.2961   -0.4942 H   0  0  0  0  0  0  0  0  0  0  0  0
    1.5729    2.6481   -0.6034 H   0  0  0  0  0  0  0  0  0  0  0  0
    1.6499    1.7295   -2.1193 H   0  0  0  0  0  0  0  0  0  0  0  0
    6.3576    6.3594   -3.0882 H   0  0  0  0  0  0  0  0  0  0  0  0
    6.7983    8.2724   -4.6097 H   0  0  0  0  0  0  0  0  0  0  0  0
    5.1060    8.8579   -6.3538 H   0  0  0  0  0  0  0  0  0  0  0  0
    3.0405    7.4644   -6.5182 H   0  0  0  0  0  0  0  0  0  0  0  0
    2.1464    3.9599   -3.7582 H   0  0  0  0  0  0  0  0  0  0  0  0
    1.4954   -2.1762    1.0274 H   0  0  0  0  0  0  0  0  0  0  0  0
    1.0760   -4.4227    0.7959 H   0  0  0  0  0  0  0  0  0  0  0  0
   -0.0077   -6.4056    1.7318 H   0  0  0  0  0  0  0  0  0  0  0  0
    0.9408   -7.5448    3.7234 H   0  0  0  0  0  0  0  0  0  0  0  0
    3.0086   -6.6429    4.7806 H   0  0  0  0  0  0  0  0  0  0  0  0
    5.3715   -3.6371    2.2169 H   0  0  0  0  0  0  0  0  0  0  0  0
    6.1892   -0.0774    0.6083 H   0  0  0  0  0  0  0  0  0  0  0  0
  1  2  2  0  0  0  0
  2  3  1  0  0  0  0
  2 16  1  0  0  0  0
  3  4  1  0  0  0  0
  3 30  1  0  0  0  0
  4  5  1  0  0  0  0
  4 31  1  0  0  0  0
  4 32  1  0  0  0  0
  5  6  2  0  0  0  0
  5 15  1  0  0  0  0
  6  7  1  0  0  0  0
  7  8  1  0  0  0  0
  8  9  1  0  0  0  0
  8 15  2  0  0  0  0
  9 10  2  0  0  0  0
  9 14  1  0  0  0  0
 10 11  1  0  0  0  0
 10 33  1  0  0  0  0
 11 12  2  0  0  0  0
 11 34  1  0  0  0  0
 12 13  1  0  0  0  0
 12 35  1  0  0  0  0
 13 14  2  0  0  0  0
 13 36  1  0  0  0  0
 15 37  1  0  0  0  0
 16 17  2  0  0  0  0
 16 28  1  0  0  0  0
 17 18  1  0  0  0  0
 17 38  1  0  0  0  0
 18 19  1  0  0  0  0
 18 26  2  0  0  0  0
 19 20  2  0  0  0  0
 19 24  1  0  0  0  0
 20 21  1  0  0  0  0
 20 39  1  0  0  0  0
 21 22  2  0  0  0  0
 21 40  1  0  0  0  0
 22 23  1  0  0  0  0
 22 41  1  0  0  0  0
 23 24  2  0  0  0  0
 23 42  1  0  0  0  0
 24 25  1  0  0  0  0
 26 27  1  0  0  0  0
 26 43  1  0  0  0  0
 27 28  2  0  0  0  0
 28 29  1  0  0  0  0
 29 44  1  0  0  0  0
M  END
$$$$
