
 OpenBabel01122422383D

 43 46  0  0  0  0  0  0  0  0999 V2000
    0.9566   -0.2910   -0.1786 O   0  0  0  0  0  0  0  0  0  0  0  0
    2.1503   -0.0073   -0.1179 C   0  0  0  0  0  0  0  0  0  0  0  0
    2.6755    1.2642    0.0460 N   0  0  0  0  0  0  0  0  0  0  0  0
    1.9392    2.4740    0.1118 C   0  0  0  0  0  0  0  0  0  0  0  0
    0.5419    2.5246    0.1200 C   0  0  0  0  0  0  0  0  0  0  0  0
   -0.1339    3.7367    0.2652 C   0  0  0  0  0  0  0  0  0  0  0  0
    0.5803    4.9234    0.3816 C   0  0  0  0  0  0  0  0  0  0  0  0
    1.9757    4.9018    0.3222 C   0  0  0  0  0  0  0  0  0  0  0  0
    2.7474    6.1477    0.4548 C   0  0  0  0  0  0  0  0  0  0  0  0
    4.0020    6.2250    0.8052 N   0  0  0  0  0  0  0  0  0  0  0  0
    4.2554    7.5742    0.8226 N   0  0  0  0  0  0  0  0  0  0  0  0
    3.1233    8.2909    0.4744 C   0  0  0  0  0  0  0  0  0  0  0  0
    2.9897    9.4991    0.4180 O   0  0  0  0  0  0  0  0  0  0  0  0
    2.1685    7.3550    0.2215 N   0  0  0  0  0  0  0  0  0  0  0  0
    2.6527    3.6782    0.1937 C   0  0  0  0  0  0  0  0  0  0  0  0
    3.1074   -1.1472   -0.2219 C   0  0  0  0  0  0  0  0  0  0  0  0
    2.6238   -2.3516    0.3214 C   0  0  0  0  0  0  0  0  0  0  0  0
    3.4081   -3.4881    0.2608 C   0  0  0  0  0  0  0  0  0  0  0  0
    4.6293   -3.5086   -0.2945 N   0  0  0  0  0  0  0  0  0  0  0  0
    5.0755   -2.3455   -0.8230 C   0  0  0  0  0  0  0  0  0  0  0  0
    4.3634   -1.1465   -0.8410 C   0  0  0  0  0  0  0  0  0  0  0  0
    5.0416   -0.1031   -1.4141 O   0  0  0  0  0  0  0  0  0  0  0  0
    4.4262    0.7597   -2.2876 C   0  0  0  0  0  0  0  0  0  0  0  0
    5.0077    2.0328   -2.3566 C   0  0  0  0  0  0  0  0  0  0  0  0
    4.3736    3.0527   -3.0625 C   0  0  0  0  0  0  0  0  0  0  0  0
    3.1710    2.7872   -3.7062 C   0  0  0  0  0  0  0  0  0  0  0  0
    2.5204    3.7821   -4.3222 F   0  0  0  0  0  0  0  0  0  0  0  0
    2.6252    1.5076   -3.7063 C   0  0  0  0  0  0  0  0  0  0  0  0
    3.2729    0.4763   -3.0236 C   0  0  0  0  0  0  0  0  0  0  0  0
    3.6833    1.3552    0.0773 H   0  0  0  0  0  0  0  0  0  0  0  0
   -0.0667    1.6307    0.0376 H   0  0  0  0  0  0  0  0  0  0  0  0
   -1.2204    3.7419    0.3107 H   0  0  0  0  0  0  0  0  0  0  0  0
    0.0266    5.8429    0.5449 H   0  0  0  0  0  0  0  0  0  0  0  0
    5.1376    7.9674    1.1184 H   0  0  0  0  0  0  0  0  0  0  0  0
    1.2356    7.5796   -0.0743 H   0  0  0  0  0  0  0  0  0  0  0  0
    3.7395    3.6772    0.1555 H   0  0  0  0  0  0  0  0  0  0  0  0
    1.6421   -2.4043    0.7848 H   0  0  0  0  0  0  0  0  0  0  0  0
    3.0557   -4.4333    0.6690 H   0  0  0  0  0  0  0  0  0  0  0  0
    6.0680   -2.4071   -1.2660 H   0  0  0  0  0  0  0  0  0  0  0  0
    5.9302    2.2432   -1.8202 H   0  0  0  0  0  0  0  0  0  0  0  0
    4.7885    4.0555   -3.0861 H   0  0  0  0  0  0  0  0  0  0  0  0
    1.6813    1.3259   -4.2102 H   0  0  0  0  0  0  0  0  0  0  0  0
    2.8260   -0.5126   -3.0249 H   0  0  0  0  0  0  0  0  0  0  0  0
  1  2  2  0  0  0  0
  2  3  1  0  0  0  0
  2 16  1  0  0  0  0
  3  4  1  0  0  0  0
  3 30  1  0  0  0  0
  4  5  2  0  0  0  0
  4 15  1  0  0  0  0
  5  6  1  0  0  0  0
  5 31  1  0  0  0  0
  6  7  2  0  0  0  0
  6 32  1  0  0  0  0
  7  8  1  0  0  0  0
  7 33  1  0  0  0  0
  8  9  1  0  0  0  0
  8 15  2  0  0  0  0
  9 10  2  0  0  0  0
  9 14  1  0  0  0  0
 10 11  1  0  0  0  0
 11 12  1  0  0  0  0
 11 34  1  0  0  0  0
 12 13  2  0  0  0  0
 12 14  1  0  0  0  0
 14 35  1  0  0  0  0
 15 36  1  0  0  0  0
 16 17  2  0  0  0  0
 16 21  1  0  0  0  0
 17 18  1  0  0  0  0
 17 37  1  0  0  0  0
 18 19  2  0  0  0  0
 18 38  1  0  0  0  0
 19 20  1  0  0  0  0
 20 21  2  0  0  0  0
 20 39  1  0  0  0  0
 21 22  1  0  0  0  0
 22 23  1  0  0  0  0
 23 24  2  0  0  0  0
 23 29  1  0  0  0  0
 24 25  1  0  0  0  0
 24 40  1  0  0  0  0
 25 26  2  0  0  0  0
 25 41  1  0  0  0  0
 26 27  1  0  0  0  0
 26 28  1  0  0  0  0
 28 29  2  0  0  0  0
 28 42  1  0  0  0  0
 29 43  1  0  0  0  0
M  END
$$$$
