
 OpenBabel01122422353D

 48 51  0  0  0  0  0  0  0  0999 V2000
    5.3197   -1.2138    1.1272 O   0  0  0  0  0  0  0  0  0  0  0  0
    4.4331   -0.8903    0.3496 C   0  0  0  0  0  0  0  0  0  0  0  0
    3.0924   -0.6958    0.6536 N   0  0  0  0  0  0  0  0  0  0  0  0
    2.5652   -0.9380    1.9446 C   0  0  0  0  0  0  0  0  0  0  0  0
    1.4424   -1.7809    2.0001 C   0  0  0  0  0  0  0  0  0  0  0  0
    0.9494   -2.2136    3.2277 C   0  0  0  0  0  0  0  0  0  0  0  0
    1.5501   -1.7751    4.4011 C   0  0  0  0  0  0  0  0  0  0  0  0
    2.6164   -0.8716    4.3514 C   0  0  0  0  0  0  0  0  0  0  0  0
    3.1332   -0.4255    3.1291 C   0  0  0  0  0  0  0  0  0  0  0  0
    4.1522    0.5588    3.0548 N   0  0  0  0  0  0  0  0  0  0  0  0
    4.9796    0.9678    4.0803 C   0  0  0  0  0  0  0  0  0  0  0  0
    4.9274    0.6110    5.2571 O   0  0  0  0  0  0  0  0  0  0  0  0
    6.1049    1.8715    3.6749 C   0  0  0  0  0  0  0  0  0  0  0  0
    7.2942    1.7685    4.3850 C   0  0  0  0  0  0  0  0  0  0  0  0
    8.3598    2.5668    4.0039 C   0  0  0  0  0  0  0  0  0  0  0  0
    8.1797    3.5146    2.9959 C   0  0  0  0  0  0  0  0  0  0  0  0
    9.2180    4.4002    2.6636 C   0  0  0  0  0  0  0  0  0  0  0  0
    9.0046    5.4148    1.7375 C   0  0  0  0  0  0  0  0  0  0  0  0
    7.7633    5.5261    1.1225 C   0  0  0  0  0  0  0  0  0  0  0  0
    6.7462    4.6066    1.4195 C   0  0  0  0  0  0  0  0  0  0  0  0
    6.9190    3.5898    2.3547 C   0  0  0  0  0  0  0  0  0  0  0  0
    5.9037    2.7436    2.6467 N   0  0  0  0  0  0  0  0  0  0  0  0
    4.7569   -0.7509   -1.0815 C   0  0  0  0  0  0  0  0  0  0  0  0
    4.1243    0.2018   -1.8789 C   0  0  0  0  0  0  0  0  0  0  0  0
    4.4324    0.2817   -3.2387 C   0  0  0  0  0  0  0  0  0  0  0  0
    3.8053    1.3165   -4.1231 C   0  0  0  0  0  0  0  0  0  0  0  0
    2.4681    1.5867   -3.7156 O   0  0  0  0  0  0  0  0  0  0  0  0
    5.4049   -0.5879   -3.7254 C   0  0  0  0  0  0  0  0  0  0  0  0
    6.0433   -1.5144   -2.9720 N   0  0  0  0  0  0  0  0  0  0  0  0
    5.7122   -1.5716   -1.6592 C   0  0  0  0  0  0  0  0  0  0  0  0
    2.4553   -0.8728   -0.1134 H   0  0  0  0  0  0  0  0  0  0  0  0
    0.9860   -2.1663    1.0929 H   0  0  0  0  0  0  0  0  0  0  0  0
    0.1166   -2.9103    3.2699 H   0  0  0  0  0  0  0  0  0  0  0  0
    1.1885   -2.1232    5.3651 H   0  0  0  0  0  0  0  0  0  0  0  0
    3.0152   -0.5225    5.2979 H   0  0  0  0  0  0  0  0  0  0  0  0
    4.4103    0.8837    2.1293 H   0  0  0  0  0  0  0  0  0  0  0  0
    7.3885    1.0716    5.2116 H   0  0  0  0  0  0  0  0  0  0  0  0
    9.3100    2.4673    4.5212 H   0  0  0  0  0  0  0  0  0  0  0  0
   10.1883    4.3224    3.1502 H   0  0  0  0  0  0  0  0  0  0  0  0
    9.7968    6.1259    1.5165 H   0  0  0  0  0  0  0  0  0  0  0  0
    7.5797    6.3323    0.4163 H   0  0  0  0  0  0  0  0  0  0  0  0
    5.7819    4.7121    0.9284 H   0  0  0  0  0  0  0  0  0  0  0  0
    3.4133    0.9007   -1.4432 H   0  0  0  0  0  0  0  0  0  0  0  0
    3.7732    0.9802   -5.1638 H   0  0  0  0  0  0  0  0  0  0  0  0
    4.3781    2.2472   -4.0692 H   0  0  0  0  0  0  0  0  0  0  0  0
    1.9774    0.7490   -3.7705 H   0  0  0  0  0  0  0  0  0  0  0  0
    5.7175   -0.5631   -4.7669 H   0  0  0  0  0  0  0  0  0  0  0  0
    6.2421   -2.3228   -1.0777 H   0  0  0  0  0  0  0  0  0  0  0  0
  1  2  2  0  0  0  0
  2  3  1  0  0  0  0
  2 23  1  0  0  0  0
  3  4  1  0  0  0  0
  3 31  1  0  0  0  0
  4  5  2  0  0  0  0
  4  9  1  0  0  0  0
  5  6  1  0  0  0  0
  5 32  1  0  0  0  0
  6  7  2  0  0  0  0
  6 33  1  0  0  0  0
  7  8  1  0  0  0  0
  7 34  1  0  0  0  0
  8  9  2  0  0  0  0
  8 35  1  0  0  0  0
  9 10  1  0  0  0  0
 10 11  1  0  0  0  0
 10 36  1  0  0  0  0
 11 12  2  0  0  0  0
 11 13  1  0  0  0  0
 13 14  2  0  0  0  0
 13 22  1  0  0  0  0
 14 15  1  0  0  0  0
 14 37  1  0  0  0  0
 15 16  2  0  0  0  0
 15 38  1  0  0  0  0
 16 17  1  0  0  0  0
 16 21  1  0  0  0  0
 17 18  2  0  0  0  0
 17 39  1  0  0  0  0
 18 19  1  0  0  0  0
 18 40  1  0  0  0  0
 19 20  2  0  0  0  0
 19 41  1  0  0  0  0
 20 21  1  0  0  0  0
 20 42  1  0  0  0  0
 21 22  2  0  0  0  0
 23 24  2  0  0  0  0
 23 30  1  0  0  0  0
 24 25  1  0  0  0  0
 24 43  1  0  0  0  0
 25 26  1  0  0  0  0
 25 28  2  0  0  0  0
 26 27  1  0  0  0  0
 26 44  1  0  0  0  0
 26 45  1  0  0  0  0
 27 46  1  0  0  0  0
 28 29  1  0  0  0  0
 28 47  1  0  0  0  0
 29 30  2  0  0  0  0
 30 48  1  0  0  0  0
M  END
$$$$
