
 OpenBabel01122422383D

 48 51  0  0  1  0  0  0  0  0999 V2000
    0.8605   -0.0679   -0.0694 C   0  0  0  0  0  0  0  0  0  0  0  0
    2.3889   -0.0126   -0.1052 C   0  0  1  0  0  0  0  0  0  0  0  0
    2.8710    0.1629   -1.4689 N   0  0  0  0  0  0  0  0  0  0  0  0
    3.1217   -0.8863   -2.3184 C   0  0  0  0  0  0  0  0  0  0  0  0
    3.0262   -2.0643   -2.0062 O   0  0  0  0  0  0  0  0  0  0  0  0
    3.5553   -0.5092   -3.6940 C   0  0  0  0  0  0  0  0  0  0  0  0
    4.4098   -1.3685   -4.4009 C   0  0  0  0  0  0  0  0  0  0  0  0
    4.8112   -1.0553   -5.7056 C   0  0  0  0  0  0  0  0  0  0  0  0
    4.3457    0.1136   -6.3056 C   0  0  0  0  0  0  0  0  0  0  0  0
    4.7157    0.4331   -7.6143 N   0  0  0  0  0  0  0  0  0  0  0  0
    4.2729    1.5486   -8.2659 C   0  0  0  0  0  0  0  0  0  0  0  0
    4.6071    1.7934   -9.4204 O   0  0  0  0  0  0  0  0  0  0  0  0
    3.4399    2.3741   -7.5648 N   0  0  0  0  0  0  0  0  0  0  0  0
    3.0145    2.1881   -6.2744 C   0  0  0  0  0  0  0  0  0  0  0  0
    2.2837    2.9842   -5.6977 O   0  0  0  0  0  0  0  0  0  0  0  0
    3.4932    0.9648   -5.6035 C   0  0  0  0  0  0  0  0  0  0  0  0
    3.0893    0.6616   -4.3018 C   0  0  0  0  0  0  0  0  0  0  0  0
    2.9185    1.1184    0.7568 C   0  0  0  0  0  0  0  0  0  0  0  0
    3.7429    0.8516    1.8553 C   0  0  0  0  0  0  0  0  0  0  0  0
    4.2960    1.8997    2.6046 C   0  0  0  0  0  0  0  0  0  0  0  0
    4.0657    3.2460    2.2710 C   0  0  0  0  0  0  0  0  0  0  0  0
    4.7206    4.3666    2.9903 C   0  0  0  0  0  0  0  0  0  0  0  0
    6.0080    4.2375    3.5431 C   0  0  0  0  0  0  0  0  0  0  0  0
    6.6568    5.3205    4.1466 C   0  0  0  0  0  0  0  0  0  0  0  0
    6.0353    6.5637    4.2046 C   0  0  0  0  0  0  0  0  0  0  0  0
    4.7559    6.7175    3.6843 C   0  0  0  0  0  0  0  0  0  0  0  0
    4.1042    5.6287    3.0980 C   0  0  0  0  0  0  0  0  0  0  0  0
    3.2133    3.4938    1.1811 C   0  0  0  0  0  0  0  0  0  0  0  0
    2.6379    2.4549    0.4473 C   0  0  0  0  0  0  0  0  0  0  0  0
    0.4847   -0.9017   -0.6717 H   0  0  0  0  0  0  0  0  0  0  0  0
    0.4083    0.8476   -0.4685 H   0  0  0  0  0  0  0  0  0  0  0  0
    0.4982   -0.1975    0.9566 H   0  0  0  0  0  0  0  0  0  0  0  0
    2.7710   -0.9706    0.2676 H   0  0  0  0  0  0  0  0  0  0  0  0
    3.1073    1.1013   -1.7554 H   0  0  0  0  0  0  0  0  0  0  0  0
    4.7628   -2.2873   -3.9336 H   0  0  0  0  0  0  0  0  0  0  0  0
    5.4736   -1.7346   -6.2364 H   0  0  0  0  0  0  0  0  0  0  0  0
    5.3271   -0.1746   -8.1452 H   0  0  0  0  0  0  0  0  0  0  0  0
    3.1158    3.2020   -8.0418 H   0  0  0  0  0  0  0  0  0  0  0  0
    2.3923    1.3231   -3.7941 H   0  0  0  0  0  0  0  0  0  0  0  0
    3.9767   -0.1745    2.1316 H   0  0  0  0  0  0  0  0  0  0  0  0
    4.9249    1.6406    3.4539 H   0  0  0  0  0  0  0  0  0  0  0  0
    6.5434    3.2925    3.4857 H   0  0  0  0  0  0  0  0  0  0  0  0
    7.6557    5.1931    4.5555 H   0  0  0  0  0  0  0  0  0  0  0  0
    6.5472    7.4108    4.6524 H   0  0  0  0  0  0  0  0  0  0  0  0
    4.2621    7.6847    3.7247 H   0  0  0  0  0  0  0  0  0  0  0  0
    3.0983    5.7871    2.7152 H   0  0  0  0  0  0  0  0  0  0  0  0
    3.0055    4.5116    0.8593 H   0  0  0  0  0  0  0  0  0  0  0  0
    1.9907    2.7074   -0.3900 H   0  0  0  0  0  0  0  0  0  0  0  0
  1  2  1  0  0  0  0
  1 30  1  0  0  0  0
  1 31  1  0  0  0  0
  1 32  1  0  0  0  0
  2  3  1  0  0  0  0
  2 18  1  0  0  0  0
  2 33  1  1  0  0  0
  3  4  1  0  0  0  0
  3 34  1  0  0  0  0
  4  5  2  0  0  0  0
  4  6  1  0  0  0  0
  6  7  2  0  0  0  0
  6 17  1  0  0  0  0
  7  8  1  0  0  0  0
  7 35  1  0  0  0  0
  8  9  2  0  0  0  0
  8 36  1  0  0  0  0
  9 10  1  0  0  0  0
  9 16  1  0  0  0  0
 10 11  1  0  0  0  0
 10 37  1  0  0  0  0
 11 12  2  0  0  0  0
 11 13  1  0  0  0  0
 13 14  1  0  0  0  0
 13 38  1  0  0  0  0
 14 15  2  0  0  0  0
 14 16  1  0  0  0  0
 16 17  2  0  0  0  0
 17 39  1  0  0  0  0
 18 19  2  0  0  0  0
 18 29  1  0  0  0  0
 19 20  1  0  0  0  0
 19 40  1  0  0  0  0
 20 21  2  0  0  0  0
 20 41  1  0  0  0  0
 21 22  1  0  0  0  0
 21 28  1  0  0  0  0
 22 23  2  0  0  0  0
 22 27  1  0  0  0  0
 23 24  1  0  0  0  0
 23 42  1  0  0  0  0
 24 25  2  0  0  0  0
 24 43  1  0  0  0  0
 25 26  1  0  0  0  0
 25 44  1  0  0  0  0
 26 27  2  0  0  0  0
 26 45  1  0  0  0  0
 27 46  1  0  0  0  0
 28 29  2  0  0  0  0
 28 47  1  0  0  0  0
 29 48  1  0  0  0  0
M  END
$$$$
