
 OpenBabel01122422383D

 43 46  0  0  0  0  0  0  0  0999 V2000
    4.2086    0.6745    3.5915 N   0  0  0  0  0  0  0  0  0  0  0  0
    4.2538    0.6912    2.2287 C   0  0  0  0  0  0  0  0  0  0  0  0
    4.7331    1.6514    1.6379 O   0  0  0  0  0  0  0  0  0  0  0  0
    3.7183   -0.4803    1.4880 C   0  0  0  0  0  0  0  0  0  0  0  0
    3.8018   -0.4572    0.0860 C   0  0  0  0  0  0  0  0  0  0  0  0
    3.3357   -1.5299   -0.6685 C   0  0  0  0  0  0  0  0  0  0  0  0
    2.7803   -2.6319   -0.0238 C   0  0  0  0  0  0  0  0  0  0  0  0
    2.6785   -2.6719    1.3790 C   0  0  0  0  0  0  0  0  0  0  0  0
    2.0738   -3.8922    1.9819 C   0  0  0  0  0  0  0  0  0  0  0  0
    1.7741   -4.7993    1.2103 O   0  0  0  0  0  0  0  0  0  0  0  0
    1.8847   -3.9276    3.3582 N   0  0  0  0  0  0  0  0  0  0  0  0
    1.3385   -4.9711    4.0802 C   0  0  0  0  0  0  0  0  0  0  0  0
    0.9104   -6.1300    3.5466 C   0  0  0  0  0  0  0  0  0  0  0  0
    0.3836   -7.1207    4.3592 N   0  0  0  0  0  0  0  0  0  0  0  0
   -0.0730   -8.3635    4.0086 C   0  0  0  0  0  0  0  0  0  0  0  0
   -0.4584   -8.9616    5.1883 C   0  0  0  0  0  0  0  0  0  0  0  0
   -0.9558  -10.3207    5.3391 C   0  0  0  0  0  0  0  0  0  0  0  0
   -1.1082  -11.1891    4.2470 C   0  0  0  0  0  0  0  0  0  0  0  0
   -1.5398  -12.5050    4.4378 C   0  0  0  0  0  0  0  0  0  0  0  0
   -1.8282  -12.9657    5.7206 C   0  0  0  0  0  0  0  0  0  0  0  0
   -1.6954  -12.1104    6.8118 C   0  0  0  0  0  0  0  0  0  0  0  0
   -1.2638  -10.7963    6.6204 C   0  0  0  0  0  0  0  0  0  0  0  0
   -0.2679   -8.0974    6.2517 N   0  0  0  0  0  0  0  0  0  0  0  0
    0.2489   -7.0045    5.7315 C   0  0  0  0  0  0  0  0  0  0  0  0
    0.6924   -5.7835    6.3169 C   0  0  0  0  0  0  0  0  0  0  0  0
    1.2164   -4.8160    5.5364 C   0  0  0  0  0  0  0  0  0  0  0  0
    3.1504   -1.5909    2.1254 C   0  0  0  0  0  0  0  0  0  0  0  0
    3.0589   -1.6246    3.4671 F   0  0  0  0  0  0  0  0  0  0  0  0
    4.5921    1.4721    4.0827 H   0  0  0  0  0  0  0  0  0  0  0  0
    3.8407   -0.0956    4.1332 H   0  0  0  0  0  0  0  0  0  0  0  0
    4.2373    0.4007   -0.4256 H   0  0  0  0  0  0  0  0  0  0  0  0
    3.4057   -1.5134   -1.7538 H   0  0  0  0  0  0  0  0  0  0  0  0
    2.4243   -3.4680   -0.6257 H   0  0  0  0  0  0  0  0  0  0  0  0
    2.1720   -3.1144    3.8910 H   0  0  0  0  0  0  0  0  0  0  0  0
    0.9453   -6.3774    2.4957 H   0  0  0  0  0  0  0  0  0  0  0  0
   -0.0548   -8.6981    2.9822 H   0  0  0  0  0  0  0  0  0  0  0  0
   -0.8862  -10.8643    3.2344 H   0  0  0  0  0  0  0  0  0  0  0  0
   -1.6432  -13.1710    3.5853 H   0  0  0  0  0  0  0  0  0  0  0  0
   -2.1540  -13.9915    5.8706 H   0  0  0  0  0  0  0  0  0  0  0  0
   -1.9187  -12.4633    7.8145 H   0  0  0  0  0  0  0  0  0  0  0  0
   -1.1563  -10.1408    7.4826 H   0  0  0  0  0  0  0  0  0  0  0  0
    0.6040   -5.6718    7.3922 H   0  0  0  0  0  0  0  0  0  0  0  0
    1.5608   -3.8955    5.9969 H   0  0  0  0  0  0  0  0  0  0  0  0
  1  2  1  0  0  0  0
  1 29  1  0  0  0  0
  1 30  1  0  0  0  0
  2  3  2  0  0  0  0
  2  4  1  0  0  0  0
  4  5  2  0  0  0  0
  4 27  1  0  0  0  0
  5  6  1  0  0  0  0
  5 31  1  0  0  0  0
  6  7  2  0  0  0  0
  6 32  1  0  0  0  0
  7  8  1  0  0  0  0
  7 33  1  0  0  0  0
  8  9  1  0  0  0  0
  8 27  2  0  0  0  0
  9 10  2  0  0  0  0
  9 11  1  0  0  0  0
 11 12  1  0  0  0  0
 11 34  1  0  0  0  0
 12 13  2  0  0  0  0
 12 26  1  0  0  0  0
 13 14  1  0  0  0  0
 13 35  1  0  0  0  0
 14 15  1  0  0  0  0
 14 24  1  0  0  0  0
 15 16  2  0  0  0  0
 15 36  1  0  0  0  0
 16 17  1  0  0  0  0
 16 23  1  0  0  0  0
 17 18  2  0  0  0  0
 17 22  1  0  0  0  0
 18 19  1  0  0  0  0
 18 37  1  0  0  0  0
 19 20  2  0  0  0  0
 19 38  1  0  0  0  0
 20 21  1  0  0  0  0
 20 39  1  0  0  0  0
 21 22  2  0  0  0  0
 21 40  1  0  0  0  0
 22 41  1  0  0  0  0
 23 24  2  0  0  0  0
 24 25  1  0  0  0  0
 25 26  2  0  0  0  0
 25 42  1  0  0  0  0
 26 43  1  0  0  0  0
 27 28  1  0  0  0  0
M  END
$$$$
