
 OpenBabel01122422353D

 42 45  0  0  0  0  0  0  0  0999 V2000
   -1.7880    1.8010   -4.0606 N   0  0  0  0  0  0  0  0  0  0  0  0
   -1.1027    1.3324   -3.2478 C   0  0  0  0  0  0  0  0  0  0  0  0
   -0.2390    0.7158   -2.2886 C   0  0  0  0  0  0  0  0  0  0  0  0
    0.4197   -0.4645   -2.6775 C   0  0  0  0  0  0  0  0  0  0  0  0
    1.3302   -1.0883   -1.8272 C   0  0  0  0  0  0  0  0  0  0  0  0
    1.5787   -0.5420   -0.5732 C   0  0  0  0  0  0  0  0  0  0  0  0
    0.9168    0.6235   -0.1677 C   0  0  0  0  0  0  0  0  0  0  0  0
   -0.0052    1.2692   -1.0135 C   0  0  0  0  0  0  0  0  0  0  0  0
   -0.6638    2.8418   -0.4496 S   0  0  0  0  0  0  0  0  0  0  0  0
   -2.4122    2.5435   -0.2798 C   0  0  0  0  0  0  0  0  0  0  0  0
   -2.9331    1.9562    0.8702 C   0  0  0  0  0  0  0  0  0  0  0  0
   -4.3157    1.7488    0.9996 C   0  0  0  0  0  0  0  0  0  0  0  0
   -5.2080    2.1190   -0.0135 C   0  0  0  0  0  0  0  0  0  0  0  0
   -6.6067    1.8656    0.0257 N   0  0  0  0  0  0  0  0  0  0  0  0
   -7.2784    1.2245    1.0490 C   0  0  0  0  0  0  0  0  0  0  0  0
   -6.7746    0.8506    2.1056 O   0  0  0  0  0  0  0  0  0  0  0  0
   -8.7505    0.9724    0.8226 C   0  0  0  0  0  0  0  0  0  0  0  0
   -9.4773    0.7487    1.9307 C   0  0  0  0  0  0  0  0  0  0  0  0
  -10.8354    0.3848    1.8070 C   0  0  0  0  0  0  0  0  0  0  0  0
  -11.8097    0.0449    2.7201 C   0  0  0  0  0  0  0  0  0  0  0  0
  -12.9724   -0.2860    1.9879 C   0  0  0  0  0  0  0  0  0  0  0  0
  -12.6776   -0.1207    0.6511 C   0  0  0  0  0  0  0  0  0  0  0  0
  -11.3606    0.2892    0.5299 N   0  0  0  0  0  0  0  0  0  0  0  0
  -10.6447    0.5416   -0.6600 C   0  0  0  0  0  0  0  0  0  0  0  0
  -11.1778    0.4310   -1.7536 O   0  0  0  0  0  0  0  0  0  0  0  0
   -9.3246    0.8865   -0.4308 N   0  0  0  0  0  0  0  0  0  0  0  0
   -4.6855    2.7610   -1.1397 C   0  0  0  0  0  0  0  0  0  0  0  0
   -3.3041    2.9824   -1.2625 C   0  0  0  0  0  0  0  0  0  0  0  0
    0.2427   -0.8917   -3.6655 H   0  0  0  0  0  0  0  0  0  0  0  0
    1.8539   -1.9858   -2.1496 H   0  0  0  0  0  0  0  0  0  0  0  0
    2.3044   -1.0119    0.0871 H   0  0  0  0  0  0  0  0  0  0  0  0
    1.1500    1.0391    0.8090 H   0  0  0  0  0  0  0  0  0  0  0  0
   -2.2827    1.6601    1.6901 H   0  0  0  0  0  0  0  0  0  0  0  0
   -4.6521    1.2911    1.9241 H   0  0  0  0  0  0  0  0  0  0  0  0
   -7.1431    2.2067   -0.7594 H   0  0  0  0  0  0  0  0  0  0  0  0
   -9.0377    0.7958    2.9239 H   0  0  0  0  0  0  0  0  0  0  0  0
  -11.6880    0.0147    3.7960 H   0  0  0  0  0  0  0  0  0  0  0  0
  -13.9199   -0.6186    2.3938 H   0  0  0  0  0  0  0  0  0  0  0  0
  -13.2808   -0.2733   -0.2340 H   0  0  0  0  0  0  0  0  0  0  0  0
   -8.7612    0.9773   -1.2641 H   0  0  0  0  0  0  0  0  0  0  0  0
   -5.3298    3.0974   -1.9478 H   0  0  0  0  0  0  0  0  0  0  0  0
   -2.9325    3.4982   -2.1462 H   0  0  0  0  0  0  0  0  0  0  0  0
  1  2  3  0  0  0  0
  2  3  1  0  0  0  0
  3  4  2  0  0  0  0
  3  8  1  0  0  0  0
  4  5  1  0  0  0  0
  4 29  1  0  0  0  0
  5  6  2  0  0  0  0
  5 30  1  0  0  0  0
  6  7  1  0  0  0  0
  6 31  1  0  0  0  0
  7  8  2  0  0  0  0
  7 32  1  0  0  0  0
  8  9  1  0  0  0  0
  9 10  1  0  0  0  0
 10 11  2  0  0  0  0
 10 28  1  0  0  0  0
 11 12  1  0  0  0  0
 11 33  1  0  0  0  0
 12 13  2  0  0  0  0
 12 34  1  0  0  0  0
 13 14  1  0  0  0  0
 13 27  1  0  0  0  0
 14 15  1  0  0  0  0
 14 35  1  0  0  0  0
 15 16  2  0  0  0  0
 15 17  1  0  0  0  0
 17 18  2  0  0  0  0
 17 26  1  0  0  0  0
 18 19  1  0  0  0  0
 18 36  1  0  0  0  0
 19 20  2  0  0  0  0
 19 23  1  0  0  0  0
 20 21  1  0  0  0  0
 20 37  1  0  0  0  0
 21 22  2  0  0  0  0
 21 38  1  0  0  0  0
 22 23  1  0  0  0  0
 22 39  1  0  0  0  0
 23 24  1  0  0  0  0
 24 25  2  0  0  0  0
 24 26  1  0  0  0  0
 26 40  1  0  0  0  0
 27 28  2  0  0  0  0
 27 41  1  0  0  0  0
 28 42  1  0  0  0  0
M  END
$$$$
