
 OpenBabel01122422383D

 45 48  0  0  0  0  0  0  0  0999 V2000
    1.2076   -0.2925   -0.5721 C   0  0  0  0  0  0  0  0  0  0  0  0
    2.6299   -0.0244   -0.5176 N   0  0  0  0  0  0  0  0  0  0  0  0
    3.3552    1.1278   -0.4825 C   0  0  0  0  0  0  0  0  0  0  0  0
    2.7605    2.4723   -0.3690 C   0  0  0  0  0  0  0  0  0  0  0  0
    1.6242    2.7155    0.4046 C   0  0  0  0  0  0  0  0  0  0  0  0
    1.0737    3.9964    0.4523 C   0  0  0  0  0  0  0  0  0  0  0  0
    1.6808    5.0574   -0.2330 C   0  0  0  0  0  0  0  0  0  0  0  0
    1.0624    6.4054   -0.1142 C   0  0  0  0  0  0  0  0  0  0  0  0
    0.3937    6.6354    0.8873 O   0  0  0  0  0  0  0  0  0  0  0  0
    1.2556    7.2600   -1.1877 N   0  0  0  0  0  0  0  0  0  0  0  0
    0.8053    8.5967   -1.2670 C   0  0  0  0  0  0  0  0  0  0  0  0
    0.3342    9.3008   -0.1588 C   0  0  0  0  0  0  0  0  0  0  0  0
   -0.1397   10.5991   -0.3020 C   0  0  0  0  0  0  0  0  0  0  0  0
   -0.1276   11.2055   -1.5517 C   0  0  0  0  0  0  0  0  0  0  0  0
   -0.6350   12.4464   -1.6336 F   0  0  0  0  0  0  0  0  0  0  0  0
    0.3879   10.5634   -2.6919 C   0  0  0  0  0  0  0  0  0  0  0  0
    0.4621   11.2512   -4.0053 C   0  0  0  0  0  0  0  0  0  0  0  0
    0.7137   12.6294   -4.0895 C   0  0  0  0  0  0  0  0  0  0  0  0
    0.7753   13.2478   -5.3288 C   0  0  0  0  0  0  0  0  0  0  0  0
    0.6250   12.5960   -6.4967 N   0  0  0  0  0  0  0  0  0  0  0  0
    0.3890   11.2721   -6.4158 C   0  0  0  0  0  0  0  0  0  0  0  0
    0.2950   10.5699   -5.2198 C   0  0  0  0  0  0  0  0  0  0  0  0
    0.8522    9.2401   -2.5173 C   0  0  0  0  0  0  0  0  0  0  0  0
    2.8647    4.8340   -0.9443 C   0  0  0  0  0  0  0  0  0  0  0  0
    3.3972    3.5422   -1.0153 C   0  0  0  0  0  0  0  0  0  0  0  0
    4.6455    0.9449   -0.5872 N   0  0  0  0  0  0  0  0  0  0  0  0
    4.7859   -0.4085   -0.6752 N   0  0  0  0  0  0  0  0  0  0  0  0
    3.5505   -1.0335   -0.6465 C   0  0  0  0  0  0  0  0  0  0  0  0
    3.3430   -2.2320   -0.7426 O   0  0  0  0  0  0  0  0  0  0  0  0
    0.6180    0.6134   -0.7098 H   0  0  0  0  0  0  0  0  0  0  0  0
    0.9164   -0.7956    0.3549 H   0  0  0  0  0  0  0  0  0  0  0  0
    1.0046   -0.9682   -1.4074 H   0  0  0  0  0  0  0  0  0  0  0  0
    1.1629    1.9301    0.9962 H   0  0  0  0  0  0  0  0  0  0  0  0
    0.1727    4.1697    1.0400 H   0  0  0  0  0  0  0  0  0  0  0  0
    1.6430    6.8656   -2.0349 H   0  0  0  0  0  0  0  0  0  0  0  0
    0.3294    8.8695    0.8374 H   0  0  0  0  0  0  0  0  0  0  0  0
   -0.5210   11.1419    0.5572 H   0  0  0  0  0  0  0  0  0  0  0  0
    0.8633   13.2355   -3.2011 H   0  0  0  0  0  0  0  0  0  0  0  0
    0.9537   14.3164   -5.4078 H   0  0  0  0  0  0  0  0  0  0  0  0
    0.2689   10.7687   -7.3710 H   0  0  0  0  0  0  0  0  0  0  0  0
    0.0807    9.5078   -5.2562 H   0  0  0  0  0  0  0  0  0  0  0  0
    1.2591    8.7027   -3.3709 H   0  0  0  0  0  0  0  0  0  0  0  0
    3.4041    5.6499   -1.4167 H   0  0  0  0  0  0  0  0  0  0  0  0
    4.3211    3.3757   -1.5676 H   0  0  0  0  0  0  0  0  0  0  0  0
    5.6795   -0.8668   -0.7873 H   0  0  0  0  0  0  0  0  0  0  0  0
  1  2  1  0  0  0  0
  1 30  1  0  0  0  0
  1 31  1  0  0  0  0
  1 32  1  0  0  0  0
  2  3  1  0  0  0  0
  2 28  1  0  0  0  0
  3  4  1  0  0  0  0
  3 26  2  0  0  0  0
  4  5  2  0  0  0  0
  4 25  1  0  0  0  0
  5  6  1  0  0  0  0
  5 33  1  0  0  0  0
  6  7  2  0  0  0  0
  6 34  1  0  0  0  0
  7  8  1  0  0  0  0
  7 24  1  0  0  0  0
  8  9  2  0  0  0  0
  8 10  1  0  0  0  0
 10 11  1  0  0  0  0
 10 35  1  0  0  0  0
 11 12  2  0  0  0  0
 11 23  1  0  0  0  0
 12 13  1  0  0  0  0
 12 36  1  0  0  0  0
 13 14  2  0  0  0  0
 13 37  1  0  0  0  0
 14 15  1  0  0  0  0
 14 16  1  0  0  0  0
 16 17  1  0  0  0  0
 16 23  2  0  0  0  0
 17 18  2  0  0  0  0
 17 22  1  0  0  0  0
 18 19  1  0  0  0  0
 18 38  1  0  0  0  0
 19 20  2  0  0  0  0
 19 39  1  0  0  0  0
 20 21  1  0  0  0  0
 21 22  2  0  0  0  0
 21 40  1  0  0  0  0
 22 41  1  0  0  0  0
 23 42  1  0  0  0  0
 24 25  2  0  0  0  0
 24 43  1  0  0  0  0
 25 44  1  0  0  0  0
 26 27  1  0  0  0  0
 27 28  1  0  0  0  0
 27 45  1  0  0  0  0
 28 29  2  0  0  0  0
M  END
$$$$
