
 OpenBabel01122422383D

 48 50  0  0  1  0  0  0  0  0999 V2000
    0.3216   -1.7093   -3.9517 N   0  0  0  0  0  0  0  0  0  0  0  0
    0.4861   -1.9899   -2.6201 C   0  0  0  0  0  0  0  0  0  0  0  0
    0.6758   -3.1498   -2.2605 O   0  0  0  0  0  0  0  0  0  0  0  0
    0.3179   -0.8018   -1.6362 C   0  0  3  0  0  0  0  0  0  0  0  0
    0.2272    0.4754   -2.3376 N   0  0  0  0  0  0  0  0  0  0  0  0
    1.3190    1.1831   -2.7204 C   0  0  0  0  0  0  0  0  0  0  0  0
    2.4753    0.8454   -2.5086 O   0  0  0  0  0  0  0  0  0  0  0  0
    1.0269    2.3037   -3.4398 N   0  0  0  0  0  0  0  0  0  0  0  0
   -0.2951    2.7479   -3.8322 C   0  0  0  0  0  0  0  0  0  0  0  0
   -0.3083    3.4422   -5.1535 C   0  0  0  0  0  0  0  0  0  0  0  0
    0.1278    2.8004   -6.3172 C   0  0  0  0  0  0  0  0  0  0  0  0
    0.0287    3.4436   -7.5559 C   0  0  0  0  0  0  0  0  0  0  0  0
   -0.4911    4.7482   -7.6673 C   0  0  0  0  0  0  0  0  0  0  0  0
   -0.5462    5.4547   -8.9660 C   0  0  0  0  0  0  0  0  0  0  0  0
   -1.5772    6.3635   -9.2668 C   0  0  0  0  0  0  0  0  0  0  0  0
   -1.5910    7.0810  -10.4647 C   0  0  0  0  0  0  0  0  0  0  0  0
   -0.5809    6.8902  -11.4017 C   0  0  0  0  0  0  0  0  0  0  0  0
    0.4386    5.9803  -11.1413 C   0  0  0  0  0  0  0  0  0  0  0  0
    0.4569    5.2747   -9.9356 C   0  0  0  0  0  0  0  0  0  0  0  0
   -0.9330    5.3690   -6.4885 C   0  0  0  0  0  0  0  0  0  0  0  0
   -0.8486    4.7198   -5.2618 C   0  0  0  0  0  0  0  0  0  0  0  0
   -1.3114    5.3439   -4.1697 F   0  0  0  0  0  0  0  0  0  0  0  0
   -0.9343   -0.9476   -0.7816 C   0  0  0  0  0  0  0  0  0  0  0  0
   -0.8288   -0.9676    0.6178 C   0  0  0  0  0  0  0  0  0  0  0  0
   -1.9761   -1.0137    1.4107 C   0  0  0  0  0  0  0  0  0  0  0  0
   -3.2288   -1.0314    0.8099 C   0  0  0  0  0  0  0  0  0  0  0  0
   -4.3276   -1.0622    1.5759 F   0  0  0  0  0  0  0  0  0  0  0  0
   -3.3599   -1.0081   -0.5725 C   0  0  0  0  0  0  0  0  0  0  0  0
   -2.2155   -0.9705   -1.3700 C   0  0  0  0  0  0  0  0  0  0  0  0
    0.5385   -2.4534   -4.6019 H   0  0  0  0  0  0  0  0  0  0  0  0
    0.4280   -0.7522   -4.2632 H   0  0  0  0  0  0  0  0  0  0  0  0
    1.2172   -0.7860   -1.0074 H   0  0  0  0  0  0  0  0  0  0  0  0
   -0.5425    1.0533   -2.0394 H   0  0  0  0  0  0  0  0  0  0  0  0
    1.8248    2.8932   -3.6477 H   0  0  0  0  0  0  0  0  0  0  0  0
   -0.6634    3.3873   -3.0238 H   0  0  0  0  0  0  0  0  0  0  0  0
   -0.9797    1.8941   -3.9083 H   0  0  0  0  0  0  0  0  0  0  0  0
    0.5339    1.7915   -6.2726 H   0  0  0  0  0  0  0  0  0  0  0  0
    0.3564    2.9032   -8.4414 H   0  0  0  0  0  0  0  0  0  0  0  0
   -2.3920    6.5294   -8.5644 H   0  0  0  0  0  0  0  0  0  0  0  0
   -2.3879    7.7933  -10.6616 H   0  0  0  0  0  0  0  0  0  0  0  0
   -0.5843    7.4529  -12.3308 H   0  0  0  0  0  0  0  0  0  0  0  0
    1.2308    5.8259  -11.8697 H   0  0  0  0  0  0  0  0  0  0  0  0
    1.2868    4.5949   -9.7553 H   0  0  0  0  0  0  0  0  0  0  0  0
   -1.3406    6.3747   -6.4972 H   0  0  0  0  0  0  0  0  0  0  0  0
    0.1475   -0.9377    1.0984 H   0  0  0  0  0  0  0  0  0  0  0  0
   -1.9006   -1.0305    2.4944 H   0  0  0  0  0  0  0  0  0  0  0  0
   -4.3493   -1.0162   -1.0186 H   0  0  0  0  0  0  0  0  0  0  0  0
   -2.3278   -0.9444   -2.4526 H   0  0  0  0  0  0  0  0  0  0  0  0
  1  2  1  0  0  0  0
  1 30  1  0  0  0  0
  1 31  1  0  0  0  0
  2  3  2  0  0  0  0
  2  4  1  0  0  0  0
  4  5  1  0  0  0  0
  4 23  1  0  0  0  0
  4 32  1  0  0  0  0
  5  6  1  0  0  0  0
  5 33  1  0  0  0  0
  6  7  2  0  0  0  0
  6  8  1  0  0  0  0
  8  9  1  0  0  0  0
  8 34  1  0  0  0  0
  9 10  1  0  0  0  0
  9 35  1  0  0  0  0
  9 36  1  0  0  0  0
 10 11  2  0  0  0  0
 10 21  1  0  0  0  0
 11 12  1  0  0  0  0
 11 37  1  0  0  0  0
 12 13  2  0  0  0  0
 12 38  1  0  0  0  0
 13 14  1  0  0  0  0
 13 20  1  0  0  0  0
 14 15  2  0  0  0  0
 14 19  1  0  0  0  0
 15 16  1  0  0  0  0
 15 39  1  0  0  0  0
 16 17  2  0  0  0  0
 16 40  1  0  0  0  0
 17 18  1  0  0  0  0
 17 41  1  0  0  0  0
 18 19  2  0  0  0  0
 18 42  1  0  0  0  0
 19 43  1  0  0  0  0
 20 21  2  0  0  0  0
 20 44  1  0  0  0  0
 21 22  1  0  0  0  0
 23 24  2  0  0  0  0
 23 29  1  0  0  0  0
 24 25  1  0  0  0  0
 24 45  1  0  0  0  0
 25 26  2  0  0  0  0
 25 46  1  0  0  0  0
 26 27  1  0  0  0  0
 26 28  1  0  0  0  0
 28 29  2  0  0  0  0
 28 47  1  0  0  0  0
 29 48  1  0  0  0  0
M  END
$$$$
