
 OpenBabel01122422383D

 41 44  0  0  0  0  0  0  0  0999 V2000
    0.9500    0.1929    0.1812 O   0  0  0  0  0  0  0  0  0  0  0  0
    2.1381   -0.0004   -0.0609 C   0  0  0  0  0  0  0  0  0  0  0  0
    2.8059   -1.1943    0.1393 N   0  0  0  0  0  0  0  0  0  0  0  0
    2.1887   -2.3981    0.5556 C   0  0  0  0  0  0  0  0  0  0  0  0
    0.8061   -2.6081    0.4684 C   0  0  0  0  0  0  0  0  0  0  0  0
    0.2234   -3.7669    0.9784 C   0  0  0  0  0  0  0  0  0  0  0  0
    1.0344   -4.7269    1.5757 C   0  0  0  0  0  0  0  0  0  0  0  0
    0.4504   -5.9236    2.2038 C   0  0  0  0  0  0  0  0  0  0  0  0
   -0.7538   -6.1487    2.1953 O   0  0  0  0  0  0  0  0  0  0  0  0
    1.3464   -6.7641    2.8086 N   0  0  0  0  0  0  0  0  0  0  0  0
    2.6934   -6.5434    2.7940 C   0  0  0  0  0  0  0  0  0  0  0  0
    3.2593   -5.5257    2.2391 N   0  0  0  0  0  0  0  0  0  0  0  0
    2.4231   -4.5720    1.6287 C   0  0  0  0  0  0  0  0  0  0  0  0
    2.9954   -3.4099    1.0935 C   0  0  0  0  0  0  0  0  0  0  0  0
    2.9709    1.1390   -0.5642 C   0  0  0  0  0  0  0  0  0  0  0  0
    2.4980    2.3692   -0.2958 C   0  0  0  0  0  0  0  0  0  0  0  0
    3.0290    3.5347   -0.8550 N   0  0  0  0  0  0  0  0  0  0  0  0
    2.4198    4.8194   -0.5770 C   0  0  0  0  0  0  0  0  0  0  0  0
    2.4225    5.8545   -1.5279 C   0  0  0  0  0  0  0  0  0  0  0  0
    1.8152    7.0875   -1.2648 C   0  0  0  0  0  0  0  0  0  0  0  0
    1.1961    7.3008   -0.0437 C   0  0  0  0  0  0  0  0  0  0  0  0
    0.6227    8.4836    0.2121 F   0  0  0  0  0  0  0  0  0  0  0  0
    1.1634    6.2999    0.9153 C   0  0  0  0  0  0  0  0  0  0  0  0
    1.7672    5.0648    0.6485 C   0  0  0  0  0  0  0  0  0  0  0  0
    4.1239    3.4469   -1.7434 C   0  0  0  0  0  0  0  0  0  0  0  0
    4.7128    4.3760   -2.2926 O   0  0  0  0  0  0  0  0  0  0  0  0
    4.6445    2.0734   -2.0163 C   0  0  0  0  0  0  0  0  0  0  0  0
    4.0963    0.9914   -1.4516 C   0  0  0  0  0  0  0  0  0  0  0  0
    3.8176   -1.1783    0.1378 H   0  0  0  0  0  0  0  0  0  0  0  0
    0.1443   -1.8799    0.0077 H   0  0  0  0  0  0  0  0  0  0  0  0
   -0.8547   -3.8996    0.9290 H   0  0  0  0  0  0  0  0  0  0  0  0
    0.9563   -7.5797    3.2584 H   0  0  0  0  0  0  0  0  0  0  0  0
    3.2785   -7.3228    3.3067 H   0  0  0  0  0  0  0  0  0  0  0  0
    4.0741   -3.2937    1.1548 H   0  0  0  0  0  0  0  0  0  0  0  0
    1.6085    2.4847    0.3178 H   0  0  0  0  0  0  0  0  0  0  0  0
    2.8616    5.7157   -2.5124 H   0  0  0  0  0  0  0  0  0  0  0  0
    1.8214    7.8742   -2.0122 H   0  0  0  0  0  0  0  0  0  0  0  0
    0.6758    6.4855    1.8674 H   0  0  0  0  0  0  0  0  0  0  0  0
    1.7472    4.3199    1.4395 H   0  0  0  0  0  0  0  0  0  0  0  0
    5.4776    2.0128   -2.7061 H   0  0  0  0  0  0  0  0  0  0  0  0
    4.4746    0.0047   -1.6935 H   0  0  0  0  0  0  0  0  0  0  0  0
  1  2  2  0  0  0  0
  2  3  1  0  0  0  0
  2 15  1  0  0  0  0
  3  4  1  0  0  0  0
  3 29  1  0  0  0  0
  4  5  2  0  0  0  0
  4 14  1  0  0  0  0
  5  6  1  0  0  0  0
  5 30  1  0  0  0  0
  6  7  2  0  0  0  0
  6 31  1  0  0  0  0
  7  8  1  0  0  0  0
  7 13  1  0  0  0  0
  8  9  2  0  0  0  0
  8 10  1  0  0  0  0
 10 11  1  0  0  0  0
 10 32  1  0  0  0  0
 11 12  2  0  0  0  0
 11 33  1  0  0  0  0
 12 13  1  0  0  0  0
 13 14  2  0  0  0  0
 14 34  1  0  0  0  0
 15 16  2  0  0  0  0
 15 28  1  0  0  0  0
 16 17  1  0  0  0  0
 16 35  1  0  0  0  0
 17 18  1  0  0  0  0
 17 25  1  0  0  0  0
 18 19  2  0  0  0  0
 18 24  1  0  0  0  0
 19 20  1  0  0  0  0
 19 36  1  0  0  0  0
 20 21  2  0  0  0  0
 20 37  1  0  0  0  0
 21 22  1  0  0  0  0
 21 23  1  0  0  0  0
 23 24  2  0  0  0  0
 23 38  1  0  0  0  0
 24 39  1  0  0  0  0
 25 26  2  0  0  0  0
 25 27  1  0  0  0  0
 27 28  2  0  0  0  0
 27 40  1  0  0  0  0
 28 41  1  0  0  0  0
M  END
$$$$
