
 OpenBabel01122422383D

 47 50  0  0  0  0  0  0  0  0999 V2000
   -2.9149    2.2221    0.3084 C   0  0  0  0  0  0  0  0  0  0  0  0
   -1.5302    1.9149    0.0077 N   0  0  0  0  0  0  0  0  0  0  0  0
   -0.7196    2.8678   -0.5737 C   0  0  0  0  0  0  0  0  0  0  0  0
    0.5851    2.6634   -0.7982 C   0  0  0  0  0  0  0  0  0  0  0  0
    1.1927    1.3938   -0.4062 C   0  0  0  0  0  0  0  0  0  0  0  0
    2.5692    1.1793   -0.5503 C   0  0  0  0  0  0  0  0  0  0  0  0
    3.1608   -0.0331   -0.1642 C   0  0  0  0  0  0  0  0  0  0  0  0
    4.5594   -0.2558   -0.2381 N   0  0  0  0  0  0  0  0  0  0  0  0
    5.5084    0.7528   -0.2007 C   0  0  0  0  0  0  0  0  0  0  0  0
    5.2504    1.9399   -0.0095 O   0  0  0  0  0  0  0  0  0  0  0  0
    6.7968    0.2765   -0.4182 N   0  0  0  0  0  0  0  0  0  0  0  0
    7.8823    1.1895   -0.4402 C   0  0  0  0  0  0  0  0  0  0  0  0
    8.0621    2.1222    0.5937 C   0  0  0  0  0  0  0  0  0  0  0  0
    9.0583    3.1175    0.5425 C   0  0  0  0  0  0  0  0  0  0  0  0
    9.2174    4.1111    1.6331 C   0  0  0  0  0  0  0  0  0  0  0  0
    8.1422    4.5179    2.4395 C   0  0  0  0  0  0  0  0  0  0  0  0
    8.3193    5.4583    3.4564 C   0  0  0  0  0  0  0  0  0  0  0  0
    9.5808    5.9897    3.6368 C   0  0  0  0  0  0  0  0  0  0  0  0
    9.8164    6.9388    4.5863 O   0  0  0  0  0  0  0  0  0  0  0  0
   10.6490    5.6385    2.9089 N   0  0  0  0  0  0  0  0  0  0  0  0
   10.4433    4.7119    1.9375 C   0  0  0  0  0  0  0  0  0  0  0  0
    9.8724    3.1359   -0.6039 C   0  0  0  0  0  0  0  0  0  0  0  0
    9.7264    2.1836   -1.6209 C   0  0  0  0  0  0  0  0  0  0  0  0
    8.7488    1.1937   -1.5282 C   0  0  0  0  0  0  0  0  0  0  0  0
    2.3391   -1.0624    0.3087 C   0  0  0  0  0  0  0  0  0  0  0  0
    0.9633   -0.8513    0.4725 C   0  0  0  0  0  0  0  0  0  0  0  0
    0.3951    0.3834    0.1335 C   0  0  0  0  0  0  0  0  0  0  0  0
   -1.0489    0.6472    0.3738 C   0  0  0  0  0  0  0  0  0  0  0  0
   -1.7515   -0.2227    0.8878 O   0  0  0  0  0  0  0  0  0  0  0  0
   -3.2041    3.2015   -0.0815 H   0  0  0  0  0  0  0  0  0  0  0  0
   -3.0442    2.2130    1.3961 H   0  0  0  0  0  0  0  0  0  0  0  0
   -3.5580    1.4526   -0.1268 H   0  0  0  0  0  0  0  0  0  0  0  0
   -1.1817    3.8119   -0.8481 H   0  0  0  0  0  0  0  0  0  0  0  0
    1.2049    3.4285   -1.2548 H   0  0  0  0  0  0  0  0  0  0  0  0
    3.1756    1.9795   -0.9680 H   0  0  0  0  0  0  0  0  0  0  0  0
    4.8936   -1.1786    0.0051 H   0  0  0  0  0  0  0  0  0  0  0  0
    6.8441   -0.4892   -1.0757 H   0  0  0  0  0  0  0  0  0  0  0  0
    7.4007    2.0624    1.4553 H   0  0  0  0  0  0  0  0  0  0  0  0
    7.1427    4.1198    2.2787 H   0  0  0  0  0  0  0  0  0  0  0  0
    7.4794    5.7535    4.0729 H   0  0  0  0  0  0  0  0  0  0  0  0
    8.9622    7.2103    4.9508 H   0  0  0  0  0  0  0  0  0  0  0  0
   11.3499    4.4582    1.3942 H   0  0  0  0  0  0  0  0  0  0  0  0
   10.6254    3.9103   -0.7389 H   0  0  0  0  0  0  0  0  0  0  0  0
   10.3613    2.2390   -2.5023 H   0  0  0  0  0  0  0  0  0  0  0  0
    8.6280    0.4907   -2.3465 H   0  0  0  0  0  0  0  0  0  0  0  0
    2.7545   -2.0242    0.5999 H   0  0  0  0  0  0  0  0  0  0  0  0
    0.3367   -1.6401    0.8848 H   0  0  0  0  0  0  0  0  0  0  0  0
  1  2  1  0  0  0  0
  1 30  1  0  0  0  0
  1 31  1  0  0  0  0
  1 32  1  0  0  0  0
  2  3  1  0  0  0  0
  2 28  1  0  0  0  0
  3  4  2  0  0  0  0
  3 33  1  0  0  0  0
  4  5  1  0  0  0  0
  4 34  1  0  0  0  0
  5  6  2  0  0  0  0
  5 27  1  0  0  0  0
  6  7  1  0  0  0  0
  6 35  1  0  0  0  0
  7  8  1  0  0  0  0
  7 25  2  0  0  0  0
  8  9  1  0  0  0  0
  8 36  1  0  0  0  0
  9 10  2  0  0  0  0
  9 11  1  0  0  0  0
 11 12  1  0  0  0  0
 11 37  1  0  0  0  0
 12 13  2  0  0  0  0
 12 24  1  0  0  0  0
 13 14  1  0  0  0  0
 13 38  1  0  0  0  0
 14 15  1  0  0  0  0
 14 22  2  0  0  0  0
 15 16  2  0  0  0  0
 15 21  1  0  0  0  0
 16 17  1  0  0  0  0
 16 39  1  0  0  0  0
 17 18  2  0  0  0  0
 17 40  1  0  0  0  0
 18 19  1  0  0  0  0
 18 20  1  0  0  0  0
 19 41  1  0  0  0  0
 20 21  2  0  0  0  0
 21 42  1  0  0  0  0
 22 23  1  0  0  0  0
 22 43  1  0  0  0  0
 23 24  2  0  0  0  0
 23 44  1  0  0  0  0
 24 45  1  0  0  0  0
 25 26  1  0  0  0  0
 25 46  1  0  0  0  0
 26 27  2  0  0  0  0
 26 47  1  0  0  0  0
 27 28  1  0  0  0  0
 28 29  2  0  0  0  0
M  END
$$$$
