
 OpenBabel01122422353D

 40 43  0  0  0  0  0  0  0  0999 V2000
    1.0993   -0.0875   -0.2798 O   0  0  0  0  0  0  0  0  0  0  0  0
    2.3126   -0.0290   -0.0954 C   0  0  0  0  0  0  0  0  0  0  0  0
    3.1101    0.7343   -0.9189 N   0  0  0  0  0  0  0  0  0  0  0  0
    2.4895    1.4372   -2.0247 C   0  0  0  0  0  0  0  0  0  0  0  0
    3.4690    2.2402   -2.7890 C   0  0  0  0  0  0  0  0  0  0  0  0
    4.7417    2.0100   -3.0356 N   0  0  0  0  0  0  0  0  0  0  0  0
    5.1785    3.0623   -3.8162 N   0  0  0  0  0  0  0  0  0  0  0  0
    4.1437    3.8594   -3.9987 C   0  0  0  0  0  0  0  0  0  0  0  0
    4.0265    5.0862   -4.7803 C   0  0  0  0  0  0  0  0  0  0  0  0
    5.1516    5.5982   -5.4467 C   0  0  0  0  0  0  0  0  0  0  0  0
    5.0504    6.7306   -6.2595 C   0  0  0  0  0  0  0  0  0  0  0  0
    3.8236    7.3724   -6.4113 C   0  0  0  0  0  0  0  0  0  0  0  0
    2.7031    6.8953   -5.7350 C   0  0  0  0  0  0  0  0  0  0  0  0
    2.8044    5.7621   -4.9217 C   0  0  0  0  0  0  0  0  0  0  0  0
    3.0144    3.3960   -3.3690 O   0  0  0  0  0  0  0  0  0  0  0  0
    2.9578   -0.7560    0.9673 C   0  0  0  0  0  0  0  0  0  0  0  0
    2.4270   -1.6552    1.8581 C   0  0  0  0  0  0  0  0  0  0  0  0
    3.4999   -2.0489    2.6941 C   0  0  0  0  0  0  0  0  0  0  0  0
    3.4482   -3.0208    3.7830 C   0  0  0  0  0  0  0  0  0  0  0  0
    2.5792   -4.1197    3.7062 C   0  0  0  0  0  0  0  0  0  0  0  0
    1.8019   -4.3036    2.6275 F   0  0  0  0  0  0  0  0  0  0  0  0
    2.4870   -5.0591    4.7294 C   0  0  0  0  0  0  0  0  0  0  0  0
    3.2777   -4.9019    5.8566 C   0  0  0  0  0  0  0  0  0  0  0  0
    3.1934   -5.7985    6.8480 F   0  0  0  0  0  0  0  0  0  0  0  0
    4.1449   -3.8267    5.9747 C   0  0  0  0  0  0  0  0  0  0  0  0
    4.2253   -2.8929    4.9391 C   0  0  0  0  0  0  0  0  0  0  0  0
    5.0468   -1.8467    5.1089 F   0  0  0  0  0  0  0  0  0  0  0  0
    4.6219   -1.4058    2.3269 N   0  0  0  0  0  0  0  0  0  0  0  0
    4.2815   -0.6036    1.2449 O   0  0  0  0  0  0  0  0  0  0  0  0
    4.1210    0.6878   -0.8470 H   0  0  0  0  0  0  0  0  0  0  0  0
    1.7005    2.0803   -1.6167 H   0  0  0  0  0  0  0  0  0  0  0  0
    2.0143    0.6979   -2.6799 H   0  0  0  0  0  0  0  0  0  0  0  0
    6.1182    5.1059   -5.3461 H   0  0  0  0  0  0  0  0  0  0  0  0
    5.9280    7.1044   -6.7826 H   0  0  0  0  0  0  0  0  0  0  0  0
    3.7400    8.2421   -7.0584 H   0  0  0  0  0  0  0  0  0  0  0  0
    1.7458    7.3980   -5.8491 H   0  0  0  0  0  0  0  0  0  0  0  0
    1.9117    5.4067   -4.4115 H   0  0  0  0  0  0  0  0  0  0  0  0
    1.3977   -1.9822    1.8837 H   0  0  0  0  0  0  0  0  0  0  0  0
    1.8054   -5.8982    4.6436 H   0  0  0  0  0  0  0  0  0  0  0  0
    4.7507   -3.7080    6.8665 H   0  0  0  0  0  0  0  0  0  0  0  0
  1  2  2  0  0  0  0
  2  3  1  0  0  0  0
  2 16  1  0  0  0  0
  3  4  1  0  0  0  0
  3 30  1  0  0  0  0
  4  5  1  0  0  0  0
  4 31  1  0  0  0  0
  4 32  1  0  0  0  0
  5  6  2  0  0  0  0
  5 15  1  0  0  0  0
  6  7  1  0  0  0  0
  7  8  2  0  0  0  0
  8  9  1  0  0  0  0
  8 15  1  0  0  0  0
  9 10  2  0  0  0  0
  9 14  1  0  0  0  0
 10 11  1  0  0  0  0
 10 33  1  0  0  0  0
 11 12  2  0  0  0  0
 11 34  1  0  0  0  0
 12 13  1  0  0  0  0
 12 35  1  0  0  0  0
 13 14  2  0  0  0  0
 13 36  1  0  0  0  0
 14 37  1  0  0  0  0
 16 17  2  0  0  0  0
 16 29  1  0  0  0  0
 17 18  1  0  0  0  0
 17 38  1  0  0  0  0
 18 19  1  0  0  0  0
 18 28  2  0  0  0  0
 19 20  2  0  0  0  0
 19 26  1  0  0  0  0
 20 21  1  0  0  0  0
 20 22  1  0  0  0  0
 22 23  2  0  0  0  0
 22 39  1  0  0  0  0
 23 24  1  0  0  0  0
 23 25  1  0  0  0  0
 25 26  2  0  0  0  0
 25 40  1  0  0  0  0
 26 27  1  0  0  0  0
 28 29  1  0  0  0  0
M  END
$$$$
