
 OpenBabel01122422383D

 42 45  0  0  0  0  0  0  0  0999 V2000
    1.7074   -0.0262   -1.4744 O   0  0  0  0  0  0  0  0  0  0  0  0
    2.5101   -0.0519   -0.5391 C   0  0  0  0  0  0  0  0  0  0  0  0
    2.9949   -1.4073   -0.0624 C   0  0  0  0  0  0  0  0  0  0  0  0
    3.6041   -1.5058    1.3168 C   0  0  0  0  0  0  0  0  0  0  0  0
    3.2169   -0.6555    2.2206 N   0  0  0  0  0  0  0  0  0  0  0  0
    3.8291   -0.6733    3.4310 N   0  0  0  0  0  0  0  0  0  0  0  0
    4.9264   -1.4291    3.7649 C   0  0  0  0  0  0  0  0  0  0  0  0
    5.5072   -1.3084    4.8372 O   0  0  0  0  0  0  0  0  0  0  0  0
    5.3532   -2.4240    2.7692 C   0  0  0  0  0  0  0  0  0  0  0  0
    6.4337   -3.2708    3.0325 C   0  0  0  0  0  0  0  0  0  0  0  0
    6.7673   -4.2702    2.1202 C   0  0  0  0  0  0  0  0  0  0  0  0
    6.0000   -4.4441    0.9679 C   0  0  0  0  0  0  0  0  0  0  0  0
    4.9321   -3.5837    0.6948 C   0  0  0  0  0  0  0  0  0  0  0  0
    4.6348   -2.5409    1.5806 C   0  0  0  0  0  0  0  0  0  0  0  0
    3.0808    1.0420    0.0609 N   0  0  0  0  0  0  0  0  0  0  0  0
    2.8257    2.3631   -0.2786 C   0  0  0  0  0  0  0  0  0  0  0  0
    2.1148    2.6511   -1.3680 N   0  0  0  0  0  0  0  0  0  0  0  0
    1.8313    3.9381   -1.6393 C   0  0  0  0  0  0  0  0  0  0  0  0
    0.9962    4.1365   -2.8357 C   0  0  0  0  0  0  0  0  0  0  0  0
    0.0470    3.1620   -3.2048 C   0  0  0  0  0  0  0  0  0  0  0  0
   -0.7418    3.3191   -4.3404 C   0  0  0  0  0  0  0  0  0  0  0  0
   -1.6387    2.3766   -4.6583 F   0  0  0  0  0  0  0  0  0  0  0  0
   -0.6126    4.4357   -5.1480 C   0  0  0  0  0  0  0  0  0  0  0  0
    0.3222    5.3987   -4.8005 C   0  0  0  0  0  0  0  0  0  0  0  0
    0.4702    6.4809   -5.5759 F   0  0  0  0  0  0  0  0  0  0  0  0
    1.1190    5.2656   -3.6636 C   0  0  0  0  0  0  0  0  0  0  0  0
    2.2794    4.9559   -0.8245 C   0  0  0  0  0  0  0  0  0  0  0  0
    3.0316    4.5698    0.2616 C   0  0  0  0  0  0  0  0  0  0  0  0
    3.3227    3.2873    0.5547 N   0  0  0  0  0  0  0  0  0  0  0  0
    3.7195   -1.7332   -0.8161 H   0  0  0  0  0  0  0  0  0  0  0  0
    2.1375   -2.0905   -0.0840 H   0  0  0  0  0  0  0  0  0  0  0  0
    3.5022   -0.0009    4.1193 H   0  0  0  0  0  0  0  0  0  0  0  0
    7.0105   -3.1541    3.9480 H   0  0  0  0  0  0  0  0  0  0  0  0
    7.6139   -4.9242    2.3173 H   0  0  0  0  0  0  0  0  0  0  0  0
    6.2405   -5.2499    0.2767 H   0  0  0  0  0  0  0  0  0  0  0  0
    4.3515   -3.7554   -0.2075 H   0  0  0  0  0  0  0  0  0  0  0  0
    3.5674    0.9383    0.9420 H   0  0  0  0  0  0  0  0  0  0  0  0
   -0.0778    2.2585   -2.6078 H   0  0  0  0  0  0  0  0  0  0  0  0
   -1.2228    4.5481   -6.0351 H   0  0  0  0  0  0  0  0  0  0  0  0
    1.8498    6.0409   -3.4572 H   0  0  0  0  0  0  0  0  0  0  0  0
    2.0431    5.9963   -1.0002 H   0  0  0  0  0  0  0  0  0  0  0  0
    3.4220    5.3056    0.9589 H   0  0  0  0  0  0  0  0  0  0  0  0
  1  2  2  0  0  0  0
  2  3  1  0  0  0  0
  2 15  1  0  0  0  0
  3  4  1  0  0  0  0
  3 30  1  0  0  0  0
  3 31  1  0  0  0  0
  4  5  2  0  0  0  0
  4 14  1  0  0  0  0
  5  6  1  0  0  0  0
  6  7  1  0  0  0  0
  6 32  1  0  0  0  0
  7  8  2  0  0  0  0
  7  9  1  0  0  0  0
  9 10  2  0  0  0  0
  9 14  1  0  0  0  0
 10 11  1  0  0  0  0
 10 33  1  0  0  0  0
 11 12  2  0  0  0  0
 11 34  1  0  0  0  0
 12 13  1  0  0  0  0
 12 35  1  0  0  0  0
 13 14  2  0  0  0  0
 13 36  1  0  0  0  0
 15 16  1  0  0  0  0
 15 37  1  0  0  0  0
 16 17  2  0  0  0  0
 16 29  1  0  0  0  0
 17 18  1  0  0  0  0
 18 19  1  0  0  0  0
 18 27  2  0  0  0  0
 19 20  2  0  0  0  0
 19 26  1  0  0  0  0
 20 21  1  0  0  0  0
 20 38  1  0  0  0  0
 21 22  1  0  0  0  0
 21 23  2  0  0  0  0
 23 24  1  0  0  0  0
 23 39  1  0  0  0  0
 24 25  1  0  0  0  0
 24 26  2  0  0  0  0
 26 40  1  0  0  0  0
 27 28  1  0  0  0  0
 27 41  1  0  0  0  0
 28 29  2  0  0  0  0
 28 42  1  0  0  0  0
M  END
$$$$
