
 OpenBabel01122422383D

 44 47  0  0  0  0  0  0  0  0999 V2000
    0.1468    1.7496    1.3974 C   0  0  0  0  0  0  0  0  0  0  0  0
    1.3101    1.9241    0.5994 O   0  0  0  0  0  0  0  0  0  0  0  0
    2.5061    1.8961    1.2669 C   0  0  0  0  0  0  0  0  0  0  0  0
    3.5435    2.6186    0.6694 C   0  0  0  0  0  0  0  0  0  0  0  0
    4.8284    2.6359    1.2377 C   0  0  0  0  0  0  0  0  0  0  0  0
    5.8664    3.3890    0.6285 N   0  0  0  0  0  0  0  0  0  0  0  0
    7.1880    3.4723    1.0108 C   0  0  0  0  0  0  0  0  0  0  0  0
    7.7834    4.3979    0.1910 C   0  0  0  0  0  0  0  0  0  0  0  0
    6.7586    4.8298   -0.6749 C   0  0  0  0  0  0  0  0  0  0  0  0
    6.9279    5.8234   -1.6164 N   0  0  0  0  0  0  0  0  0  0  0  0
    5.9942    6.1519   -2.5804 C   0  0  0  0  0  0  0  0  0  0  0  0
    4.9443    5.5687   -2.8134 O   0  0  0  0  0  0  0  0  0  0  0  0
    6.3646    7.3002   -3.4650 C   0  0  0  0  0  0  0  0  0  0  0  0
    7.7095    7.3861   -3.8756 C   0  0  0  0  0  0  0  0  0  0  0  0
    8.0955    8.3007   -4.8464 C   0  0  0  0  0  0  0  0  0  0  0  0
    9.3745    8.3549   -5.2215 F   0  0  0  0  0  0  0  0  0  0  0  0
    7.1664    9.1264   -5.4555 C   0  0  0  0  0  0  0  0  0  0  0  0
    5.8272    9.0572   -5.0688 C   0  0  0  0  0  0  0  0  0  0  0  0
    5.4100    8.1614   -4.0597 C   0  0  0  0  0  0  0  0  0  0  0  0
    4.0357    8.1999   -3.6729 N   0  0  0  0  0  0  0  0  0  0  0  0
    3.4878    7.9625   -2.4325 C   0  0  0  0  0  0  0  0  0  0  0  0
    2.1301    8.1292   -2.5740 C   0  0  0  0  0  0  0  0  0  0  0  0
    1.8211    8.5448   -3.8369 N   0  0  0  0  0  0  0  0  0  0  0  0
    2.9720    8.5747   -4.4709 C   0  0  0  0  0  0  0  0  0  0  0  0
    5.6226    4.1823   -0.4371 N   0  0  0  0  0  0  0  0  0  0  0  0
    5.0673    1.9281    2.4263 C   0  0  0  0  0  0  0  0  0  0  0  0
    4.0367    1.2078    3.0211 C   0  0  0  0  0  0  0  0  0  0  0  0
    2.7720    1.1915    2.4473 C   0  0  0  0  0  0  0  0  0  0  0  0
    1.8301    0.4536    3.0524 F   0  0  0  0  0  0  0  0  0  0  0  0
   -0.7247    1.9030    0.7534 H   0  0  0  0  0  0  0  0  0  0  0  0
    0.1070    2.4965    2.1978 H   0  0  0  0  0  0  0  0  0  0  0  0
    0.0711    0.7322    1.7955 H   0  0  0  0  0  0  0  0  0  0  0  0
    3.3353    3.1677   -0.2522 H   0  0  0  0  0  0  0  0  0  0  0  0
    7.5951    2.8862    1.8215 H   0  0  0  0  0  0  0  0  0  0  0  0
    8.8166    4.7126    0.2233 H   0  0  0  0  0  0  0  0  0  0  0  0
    7.8035    6.3186   -1.5591 H   0  0  0  0  0  0  0  0  0  0  0  0
    8.4744    6.7086   -3.5048 H   0  0  0  0  0  0  0  0  0  0  0  0
    7.4892    9.8229   -6.2232 H   0  0  0  0  0  0  0  0  0  0  0  0
    5.1326    9.7444   -5.5493 H   0  0  0  0  0  0  0  0  0  0  0  0
    4.0728    7.6801   -1.5700 H   0  0  0  0  0  0  0  0  0  0  0  0
    1.3645    7.9803   -1.8240 H   0  0  0  0  0  0  0  0  0  0  0  0
    3.0826    8.8170   -5.5189 H   0  0  0  0  0  0  0  0  0  0  0  0
    6.0348    1.9226    2.9144 H   0  0  0  0  0  0  0  0  0  0  0  0
    4.2082    0.6502    3.9412 H   0  0  0  0  0  0  0  0  0  0  0  0
  1  2  1  0  0  0  0
  1 30  1  0  0  0  0
  1 31  1  0  0  0  0
  1 32  1  0  0  0  0
  2  3  1  0  0  0  0
  3  4  2  0  0  0  0
  3 28  1  0  0  0  0
  4  5  1  0  0  0  0
  4 33  1  0  0  0  0
  5  6  1  0  0  0  0
  5 26  2  0  0  0  0
  6  7  1  0  0  0  0
  6 25  1  0  0  0  0
  7  8  2  0  0  0  0
  7 34  1  0  0  0  0
  8  9  1  0  0  0  0
  8 35  1  0  0  0  0
  9 10  1  0  0  0  0
  9 25  2  0  0  0  0
 10 11  1  0  0  0  0
 10 36  1  0  0  0  0
 11 12  2  0  0  0  0
 11 13  1  0  0  0  0
 13 14  2  0  0  0  0
 13 19  1  0  0  0  0
 14 15  1  0  0  0  0
 14 37  1  0  0  0  0
 15 16  1  0  0  0  0
 15 17  2  0  0  0  0
 17 18  1  0  0  0  0
 17 38  1  0  0  0  0
 18 19  2  0  0  0  0
 18 39  1  0  0  0  0
 19 20  1  0  0  0  0
 20 21  1  0  0  0  0
 20 24  1  0  0  0  0
 21 22  2  0  0  0  0
 21 40  1  0  0  0  0
 22 23  1  0  0  0  0
 22 41  1  0  0  0  0
 23 24  2  0  0  0  0
 24 42  1  0  0  0  0
 26 27  1  0  0  0  0
 26 43  1  0  0  0  0
 27 28  2  0  0  0  0
 27 44  1  0  0  0  0
 28 29  1  0  0  0  0
M  END
$$$$
