
 OpenBabel01122422383D

 46 49  0  0  0  0  0  0  0  0999 V2000
   -2.6171   -0.6798    0.0839 C   0  0  0  0  0  0  0  0  0  0  0  0
   -1.1703   -0.3537    0.1124 C   0  0  0  0  0  0  0  0  0  0  0  0
   -0.0165   -1.1209    0.1082 C   0  0  0  0  0  0  0  0  0  0  0  0
    0.0816   -2.5858    0.0498 C   0  0  0  0  0  0  0  0  0  0  0  0
   -0.8990   -3.2950   -0.1628 O   0  0  0  0  0  0  0  0  0  0  0  0
    1.3547   -3.0615    0.2988 N   0  0  0  0  0  0  0  0  0  0  0  0
    1.7679   -4.3814    0.2929 C   0  0  0  0  0  0  0  0  0  0  0  0
    1.1068   -5.3871   -0.2967 C   0  0  0  0  0  0  0  0  0  0  0  0
    1.5713   -6.7431   -0.2196 C   0  0  0  0  0  0  0  0  0  0  0  0
    2.6442   -7.0431    0.5157 C   0  0  0  0  0  0  0  0  0  0  0  0
    3.3874   -6.0653    1.1648 N   0  0  0  0  0  0  0  0  0  0  0  0
    4.4438   -6.4360    2.0576 C   0  0  0  0  0  0  0  0  0  0  0  0
    4.2233   -7.4305    3.0241 C   0  0  0  0  0  0  0  0  0  0  0  0
    5.1904   -7.7012    3.9952 C   0  0  0  0  0  0  0  0  0  0  0  0
    6.4047   -7.0186    3.9784 C   0  0  0  0  0  0  0  0  0  0  0  0
    6.6584   -6.0756    2.9842 C   0  0  0  0  0  0  0  0  0  0  0  0
    5.6781   -5.7776    2.0346 C   0  0  0  0  0  0  0  0  0  0  0  0
    3.0526   -4.6963    1.0445 C   0  0  0  0  0  0  0  0  0  0  0  0
    3.6614   -3.7557    1.5628 O   0  0  0  0  0  0  0  0  0  0  0  0
    1.0958   -0.2937    0.1498 N   0  0  0  0  0  0  0  0  0  0  0  0
    0.6415    0.9460    0.1860 C   0  0  0  0  0  0  0  0  0  0  0  0
    1.4383    2.1709    0.2402 C   0  0  0  0  0  0  0  0  0  0  0  0
    2.6816    2.2217   -0.4023 C   0  0  0  0  0  0  0  0  0  0  0  0
    3.4683    3.3743   -0.3393 C   0  0  0  0  0  0  0  0  0  0  0  0
    3.0214    4.4857    0.3730 C   0  0  0  0  0  0  0  0  0  0  0  0
    1.7846    4.4507    1.0136 C   0  0  0  0  0  0  0  0  0  0  0  0
    0.9951    3.3002    0.9455 C   0  0  0  0  0  0  0  0  0  0  0  0
   -0.7320    0.9442    0.1518 N   0  0  0  0  0  0  0  0  0  0  0  0
   -2.8049   -1.7532    0.1572 H   0  0  0  0  0  0  0  0  0  0  0  0
   -3.0724   -0.3181   -0.8442 H   0  0  0  0  0  0  0  0  0  0  0  0
   -3.1285   -0.1984    0.9240 H   0  0  0  0  0  0  0  0  0  0  0  0
    2.0209   -2.3750    0.6639 H   0  0  0  0  0  0  0  0  0  0  0  0
    0.1985   -5.2246   -0.8634 H   0  0  0  0  0  0  0  0  0  0  0  0
    1.0154   -7.5075   -0.7496 H   0  0  0  0  0  0  0  0  0  0  0  0
    2.9943   -8.0685    0.5927 H   0  0  0  0  0  0  0  0  0  0  0  0
    3.2665   -7.9428    3.0849 H   0  0  0  0  0  0  0  0  0  0  0  0
    4.9831   -8.4219    4.7822 H   0  0  0  0  0  0  0  0  0  0  0  0
    7.1487   -7.2111    4.7470 H   0  0  0  0  0  0  0  0  0  0  0  0
    7.6099   -5.5510    2.9600 H   0  0  0  0  0  0  0  0  0  0  0  0
    5.8887   -5.0293    1.2745 H   0  0  0  0  0  0  0  0  0  0  0  0
    3.0428    1.3559   -0.9549 H   0  0  0  0  0  0  0  0  0  0  0  0
    4.4339    3.3981   -0.8375 H   0  0  0  0  0  0  0  0  0  0  0  0
    3.6422    5.3758    0.4370 H   0  0  0  0  0  0  0  0  0  0  0  0
    1.4417    5.3127    1.5799 H   0  0  0  0  0  0  0  0  0  0  0  0
    0.0483    3.2899    1.4788 H   0  0  0  0  0  0  0  0  0  0  0  0
   -1.3126    1.7704    0.1414 H   0  0  0  0  0  0  0  0  0  0  0  0
  1  2  1  0  0  0  0
  1 29  1  0  0  0  0
  1 30  1  0  0  0  0
  1 31  1  0  0  0  0
  2  3  2  0  0  0  0
  2 28  1  0  0  0  0
  3  4  1  0  0  0  0
  3 20  1  0  0  0  0
  4  5  2  0  0  0  0
  4  6  1  0  0  0  0
  6  7  1  0  0  0  0
  6 32  1  0  0  0  0
  7  8  2  0  0  0  0
  7 18  1  0  0  0  0
  8  9  1  0  0  0  0
  8 33  1  0  0  0  0
  9 10  2  0  0  0  0
  9 34  1  0  0  0  0
 10 11  1  0  0  0  0
 10 35  1  0  0  0  0
 11 12  1  0  0  0  0
 11 18  1  0  0  0  0
 12 13  2  0  0  0  0
 12 17  1  0  0  0  0
 13 14  1  0  0  0  0
 13 36  1  0  0  0  0
 14 15  2  0  0  0  0
 14 37  1  0  0  0  0
 15 16  1  0  0  0  0
 15 38  1  0  0  0  0
 16 17  2  0  0  0  0
 16 39  1  0  0  0  0
 17 40  1  0  0  0  0
 18 19  2  0  0  0  0
 20 21  2  0  0  0  0
 21 22  1  0  0  0  0
 21 28  1  0  0  0  0
 22 23  2  0  0  0  0
 22 27  1  0  0  0  0
 23 24  1  0  0  0  0
 23 41  1  0  0  0  0
 24 25  2  0  0  0  0
 24 42  1  0  0  0  0
 25 26  1  0  0  0  0
 25 43  1  0  0  0  0
 26 27  2  0  0  0  0
 26 44  1  0  0  0  0
 27 45  1  0  0  0  0
 28 46  1  0  0  0  0
M  END
$$$$
