
 OpenBabel01122422383D

 50 53  0  0  0  0  0  0  0  0999 V2000
    5.0863   -0.4314   -6.5095 C   0  0  0  0  0  0  0  0  0  0  0  0
    4.6791   -1.1181   -5.2569 C   0  0  0  0  0  0  0  0  0  0  0  0
    4.8651   -0.5456   -4.0605 N   0  0  0  0  0  0  0  0  0  0  0  0
    4.3811   -1.4542   -3.1874 N   0  0  0  0  0  0  0  0  0  0  0  0
    3.8597   -2.5769   -3.7771 C   0  0  0  0  0  0  0  0  0  0  0  0
    3.2341   -3.7180   -3.2496 C   0  0  0  0  0  0  0  0  0  0  0  0
    2.9811   -3.8577   -1.7893 C   0  0  0  0  0  0  0  0  0  0  0  0
    3.6670   -3.2395   -0.9850 O   0  0  0  0  0  0  0  0  0  0  0  0
    1.9290   -4.6818   -1.4442 N   0  0  0  0  0  0  0  0  0  0  0  0
    1.5858   -4.9761   -0.0704 C   0  0  0  0  0  0  0  0  0  0  0  0
    0.4396   -5.9576    0.0081 C   0  0  0  0  0  0  0  0  0  0  0  0
    0.6892   -7.3307   -0.0758 C   0  0  0  0  0  0  0  0  0  0  0  0
   -0.3575   -8.2582   -0.0056 C   0  0  0  0  0  0  0  0  0  0  0  0
   -1.6833   -7.8458    0.1381 C   0  0  0  0  0  0  0  0  0  0  0  0
   -2.7753   -8.7447    0.2103 N   0  0  0  0  0  0  0  0  0  0  0  0
   -2.7299  -10.1219    0.0709 C   0  0  0  0  0  0  0  0  0  0  0  0
   -1.7165  -10.7764   -0.1704 O   0  0  0  0  0  0  0  0  0  0  0  0
   -4.0159  -10.8803    0.2255 C   0  0  0  0  0  0  0  0  0  0  0  0
   -3.9421  -12.2815    0.0955 C   0  0  0  0  0  0  0  0  0  0  0  0
   -5.0701  -13.0867    0.2612 C   0  0  0  0  0  0  0  0  0  0  0  0
   -6.2941  -12.5024    0.5665 C   0  0  0  0  0  0  0  0  0  0  0  0
   -6.3949  -11.1144    0.6815 C   0  0  0  0  0  0  0  0  0  0  0  0
   -5.2644  -10.3060    0.4989 C   0  0  0  0  0  0  0  0  0  0  0  0
   -5.4096   -8.9451    0.5865 O   0  0  0  0  0  0  0  0  0  0  0  0
   -1.9397   -6.4715    0.2178 C   0  0  0  0  0  0  0  0  0  0  0  0
   -0.8906   -5.5362    0.1423 C   0  0  0  0  0  0  0  0  0  0  0  0
    2.8817   -4.7255   -4.1656 C   0  0  0  0  0  0  0  0  0  0  0  0
    3.0856   -4.5667   -5.5365 C   0  0  0  0  0  0  0  0  0  0  0  0
    3.6637   -3.3986   -6.0401 C   0  0  0  0  0  0  0  0  0  0  0  0
    4.0680   -2.3952   -5.1417 C   0  0  0  0  0  0  0  0  0  0  0  0
    5.5188    0.5548   -6.3154 H   0  0  0  0  0  0  0  0  0  0  0  0
    4.2205   -0.2972   -7.1671 H   0  0  0  0  0  0  0  0  0  0  0  0
    5.8303   -1.0288   -7.0472 H   0  0  0  0  0  0  0  0  0  0  0  0
    4.4404   -1.2607   -2.1919 H   0  0  0  0  0  0  0  0  0  0  0  0
    1.2807   -4.9895   -2.1543 H   0  0  0  0  0  0  0  0  0  0  0  0
    1.3422   -4.0413    0.4453 H   0  0  0  0  0  0  0  0  0  0  0  0
    2.4729   -5.3916    0.4233 H   0  0  0  0  0  0  0  0  0  0  0  0
    1.7060   -7.7020   -0.1866 H   0  0  0  0  0  0  0  0  0  0  0  0
   -0.0904   -9.3084   -0.0527 H   0  0  0  0  0  0  0  0  0  0  0  0
   -3.6983   -8.3473    0.3692 H   0  0  0  0  0  0  0  0  0  0  0  0
   -2.9908  -12.7600   -0.1354 H   0  0  0  0  0  0  0  0  0  0  0  0
   -4.9852  -14.1660    0.1569 H   0  0  0  0  0  0  0  0  0  0  0  0
   -7.1701  -13.1296    0.7149 H   0  0  0  0  0  0  0  0  0  0  0  0
   -7.3627  -10.6847    0.9244 H   0  0  0  0  0  0  0  0  0  0  0  0
   -6.3604   -8.7431    0.6558 H   0  0  0  0  0  0  0  0  0  0  0  0
   -2.9572   -6.1059    0.3354 H   0  0  0  0  0  0  0  0  0  0  0  0
   -1.1236   -4.4744    0.1973 H   0  0  0  0  0  0  0  0  0  0  0  0
    2.4616   -5.6653   -3.8151 H   0  0  0  0  0  0  0  0  0  0  0  0
    2.7958   -5.3620   -6.2198 H   0  0  0  0  0  0  0  0  0  0  0  0
    3.8139   -3.2804   -7.1102 H   0  0  0  0  0  0  0  0  0  0  0  0
  1  2  1  0  0  0  0
  1 31  1  0  0  0  0
  1 32  1  0  0  0  0
  1 33  1  0  0  0  0
  2  3  2  0  0  0  0
  2 30  1  0  0  0  0
  3  4  1  0  0  0  0
  4  5  1  0  0  0  0
  4 34  1  0  0  0  0
  5  6  2  0  0  0  0
  5 30  1  0  0  0  0
  6  7  1  0  0  0  0
  6 27  1  0  0  0  0
  7  8  2  0  0  0  0
  7  9  1  0  0  0  0
  9 10  1  0  0  0  0
  9 35  1  0  0  0  0
 10 11  1  0  0  0  0
 10 36  1  0  0  0  0
 10 37  1  0  0  0  0
 11 12  2  0  0  0  0
 11 26  1  0  0  0  0
 12 13  1  0  0  0  0
 12 38  1  0  0  0  0
 13 14  2  0  0  0  0
 13 39  1  0  0  0  0
 14 15  1  0  0  0  0
 14 25  1  0  0  0  0
 15 16  1  0  0  0  0
 15 40  1  0  0  0  0
 16 17  2  0  0  0  0
 16 18  1  0  0  0  0
 18 19  2  0  0  0  0
 18 23  1  0  0  0  0
 19 20  1  0  0  0  0
 19 41  1  0  0  0  0
 20 21  2  0  0  0  0
 20 42  1  0  0  0  0
 21 22  1  0  0  0  0
 21 43  1  0  0  0  0
 22 23  2  0  0  0  0
 22 44  1  0  0  0  0
 23 24  1  0  0  0  0
 24 45  1  0  0  0  0
 25 26  2  0  0  0  0
 25 46  1  0  0  0  0
 26 47  1  0  0  0  0
 27 28  2  0  0  0  0
 27 48  1  0  0  0  0
 28 29  1  0  0  0  0
 28 49  1  0  0  0  0
 29 30  2  0  0  0  0
 29 50  1  0  0  0  0
M  END
$$$$
