
 OpenBabel01122422383D

 44 47  0  0  0  0  0  0  0  0999 V2000
    2.7761    0.9066    0.7749 O   0  0  0  0  0  0  0  0  0  0  0  0
    2.2032    0.0636    0.0941 C   0  0  0  0  0  0  0  0  0  0  0  0
    0.8605    0.1323   -0.2234 N   0  0  0  0  0  0  0  0  0  0  0  0
    0.0104    1.1741    0.3132 C   0  0  0  0  0  0  0  0  0  0  0  0
   -0.7200    0.7351    1.5501 C   0  0  0  0  0  0  0  0  0  0  0  0
   -0.0348    0.3094    2.6944 C   0  0  0  0  0  0  0  0  0  0  0  0
   -0.7498   -0.0372    3.8323 C   0  0  0  0  0  0  0  0  0  0  0  0
   -0.1217   -0.4594    4.9646 O   0  0  0  0  0  0  0  0  0  0  0  0
   -2.1301    0.0628    3.8043 C   0  0  0  0  0  0  0  0  0  0  0  0
   -2.8318    0.4668    2.7189 N   0  0  0  0  0  0  0  0  0  0  0  0
   -2.1097    0.7959    1.6230 C   0  0  0  0  0  0  0  0  0  0  0  0
    2.9666   -1.0786   -0.4797 C   0  0  0  0  0  0  0  0  0  0  0  0
    2.6830   -1.4647   -1.8031 C   0  0  0  0  0  0  0  0  0  0  0  0
    3.4514   -2.4374   -2.4417 C   0  0  0  0  0  0  0  0  0  0  0  0
    4.5237   -3.0184   -1.7720 C   0  0  0  0  0  0  0  0  0  0  0  0
    4.8065   -2.6452   -0.4546 C   0  0  0  0  0  0  0  0  0  0  0  0
    4.0289   -1.6869    0.2219 C   0  0  0  0  0  0  0  0  0  0  0  0
    4.2975   -1.4091    1.6305 C   0  0  0  0  0  0  0  0  0  0  0  0
    3.4791   -1.1320    2.6213 N   0  0  0  0  0  0  0  0  0  0  0  0
    4.2559   -1.0133    3.7594 N   0  0  0  0  0  0  0  0  0  0  0  0
    5.4961   -1.2606    3.3903 C   0  0  0  0  0  0  0  0  0  0  0  0
    6.7015   -1.3726    4.2033 C   0  0  0  0  0  0  0  0  0  0  0  0
    6.6374   -1.0711    5.5754 C   0  0  0  0  0  0  0  0  0  0  0  0
    7.7454   -1.2696    6.4042 C   0  0  0  0  0  0  0  0  0  0  0  0
    8.9248   -1.7626    5.8616 C   0  0  0  0  0  0  0  0  0  0  0  0
    9.9763   -1.9880    6.6605 F   0  0  0  0  0  0  0  0  0  0  0  0
    9.0256   -2.0344    4.5028 C   0  0  0  0  0  0  0  0  0  0  0  0
    7.9177   -1.8344    3.6729 C   0  0  0  0  0  0  0  0  0  0  0  0
    5.6059   -1.5339    2.0498 O   0  0  0  0  0  0  0  0  0  0  0  0
    0.4168   -0.6217   -0.7258 H   0  0  0  0  0  0  0  0  0  0  0  0
   -0.6964    1.4345   -0.4820 H   0  0  0  0  0  0  0  0  0  0  0  0
    0.5986    2.0725    0.5358 H   0  0  0  0  0  0  0  0  0  0  0  0
    1.0516    0.2660    2.6948 H   0  0  0  0  0  0  0  0  0  0  0  0
    0.8349   -0.5033    4.7810 H   0  0  0  0  0  0  0  0  0  0  0  0
   -2.7240   -0.1863    4.6798 H   0  0  0  0  0  0  0  0  0  0  0  0
   -2.7082    1.1278    0.7781 H   0  0  0  0  0  0  0  0  0  0  0  0
    1.8859   -0.9826   -2.3702 H   0  0  0  0  0  0  0  0  0  0  0  0
    3.2256   -2.7259   -3.4652 H   0  0  0  0  0  0  0  0  0  0  0  0
    5.1375   -3.7610   -2.2736 H   0  0  0  0  0  0  0  0  0  0  0  0
    5.6436   -3.1316    0.0484 H   0  0  0  0  0  0  0  0  0  0  0  0
    5.7126   -0.6970    6.0119 H   0  0  0  0  0  0  0  0  0  0  0  0
    7.6873   -1.0588    7.4672 H   0  0  0  0  0  0  0  0  0  0  0  0
    9.9594   -2.4160    4.1008 H   0  0  0  0  0  0  0  0  0  0  0  0
    8.0102   -2.0656    2.6138 H   0  0  0  0  0  0  0  0  0  0  0  0
  1  2  2  0  0  0  0
  2  3  1  0  0  0  0
  2 12  1  0  0  0  0
  3  4  1  0  0  0  0
  3 30  1  0  0  0  0
  4  5  1  0  0  0  0
  4 31  1  0  0  0  0
  4 32  1  0  0  0  0
  5  6  2  0  0  0  0
  5 11  1  0  0  0  0
  6  7  1  0  0  0  0
  6 33  1  0  0  0  0
  7  8  1  0  0  0  0
  7  9  2  0  0  0  0
  8 34  1  0  0  0  0
  9 10  1  0  0  0  0
  9 35  1  0  0  0  0
 10 11  2  0  0  0  0
 11 36  1  0  0  0  0
 12 13  2  0  0  0  0
 12 17  1  0  0  0  0
 13 14  1  0  0  0  0
 13 37  1  0  0  0  0
 14 15  2  0  0  0  0
 14 38  1  0  0  0  0
 15 16  1  0  0  0  0
 15 39  1  0  0  0  0
 16 17  2  0  0  0  0
 16 40  1  0  0  0  0
 17 18  1  0  0  0  0
 18 19  2  0  0  0  0
 18 29  1  0  0  0  0
 19 20  1  0  0  0  0
 20 21  2  0  0  0  0
 21 22  1  0  0  0  0
 21 29  1  0  0  0  0
 22 23  2  0  0  0  0
 22 28  1  0  0  0  0
 23 24  1  0  0  0  0
 23 41  1  0  0  0  0
 24 25  2  0  0  0  0
 24 42  1  0  0  0  0
 25 26  1  0  0  0  0
 25 27  1  0  0  0  0
 27 28  2  0  0  0  0
 27 43  1  0  0  0  0
 28 44  1  0  0  0  0
M  END
$$$$
