
 OpenBabel01122422383D

 46 49  0  0  1  0  0  0  0  0999 V2000
    2.2432   -1.3740    0.1031 N   0  0  0  0  0  0  0  0  0  0  0  0
    2.4139   -0.0217    0.2206 C   0  0  0  0  0  0  0  0  0  0  0  0
    2.0442    0.5668    1.2357 O   0  0  0  0  0  0  0  0  0  0  0  0
    3.1602    0.6688   -0.9440 C   0  0  3  0  0  0  0  0  0  0  0  0
    2.7570    2.0703   -1.0064 N   0  0  0  0  0  0  0  0  0  0  0  0
    1.6911    2.4511   -1.8080 C   0  0  0  0  0  0  0  0  0  0  0  0
    1.1214    1.6594   -2.5490 O   0  0  0  0  0  0  0  0  0  0  0  0
    1.3308    3.9071   -1.7751 C   0  0  0  0  0  0  0  0  0  0  0  0
    2.3580    4.8572   -1.6102 C   0  0  0  0  0  0  0  0  0  0  0  0
    3.6837    4.5445   -1.4487 O   0  0  0  0  0  0  0  0  0  0  0  0
    2.0852    6.2182   -1.6396 C   0  0  0  0  0  0  0  0  0  0  0  0
    0.7881    6.6595   -1.8727 C   0  0  0  0  0  0  0  0  0  0  0  0
   -0.2611    5.7495   -2.0528 C   0  0  0  0  0  0  0  0  0  0  0  0
   -1.5545    6.2435   -2.2922 C   0  0  0  0  0  0  0  0  0  0  0  0
   -2.6352    5.3827   -2.4575 C   0  0  0  0  0  0  0  0  0  0  0  0
   -2.4326    4.0130   -2.3803 C   0  0  0  0  0  0  0  0  0  0  0  0
   -1.1475    3.5045   -2.1501 C   0  0  0  0  0  0  0  0  0  0  0  0
   -0.0161    4.3492   -1.9934 C   0  0  0  0  0  0  0  0  0  0  0  0
    4.6751    0.5525   -0.8356 C   0  0  0  0  0  0  0  0  0  0  0  0
    5.4438    0.5291   -2.0087 C   0  0  0  0  0  0  0  0  0  0  0  0
    6.8313    0.3650   -1.9555 C   0  0  0  0  0  0  0  0  0  0  0  0
    7.4931    0.2285   -0.7255 C   0  0  0  0  0  0  0  0  0  0  0  0
    8.8828    0.0298   -0.6575 C   0  0  0  0  0  0  0  0  0  0  0  0
    9.5229   -0.1160    0.5732 C   0  0  0  0  0  0  0  0  0  0  0  0
    8.7831   -0.0617    1.7510 C   0  0  0  0  0  0  0  0  0  0  0  0
    7.4020    0.1405    1.6993 C   0  0  0  0  0  0  0  0  0  0  0  0
    6.7407    0.2834    0.4675 C   0  0  0  0  0  0  0  0  0  0  0  0
    5.3451    0.4628    0.3974 C   0  0  0  0  0  0  0  0  0  0  0  0
    1.7392   -1.8516    0.8386 H   0  0  0  0  0  0  0  0  0  0  0  0
    2.4478   -1.8780   -0.7493 H   0  0  0  0  0  0  0  0  0  0  0  0
    2.8435    0.1618   -1.8647 H   0  0  0  0  0  0  0  0  0  0  0  0
    2.8950    2.6010   -0.1490 H   0  0  0  0  0  0  0  0  0  0  0  0
    3.8195    3.5999   -1.6569 H   0  0  0  0  0  0  0  0  0  0  0  0
    2.8893    6.9376   -1.5078 H   0  0  0  0  0  0  0  0  0  0  0  0
    0.6049    7.7316   -1.9171 H   0  0  0  0  0  0  0  0  0  0  0  0
   -1.7333    7.3158   -2.3550 H   0  0  0  0  0  0  0  0  0  0  0  0
   -3.6289    5.7815   -2.6448 H   0  0  0  0  0  0  0  0  0  0  0  0
   -3.2715    3.3311   -2.5010 H   0  0  0  0  0  0  0  0  0  0  0  0
   -1.0464    2.4238   -2.0963 H   0  0  0  0  0  0  0  0  0  0  0  0
    4.9644    0.6217   -2.9825 H   0  0  0  0  0  0  0  0  0  0  0  0
    7.3942    0.3368   -2.8853 H   0  0  0  0  0  0  0  0  0  0  0  0
    9.4775   -0.0205   -1.5667 H   0  0  0  0  0  0  0  0  0  0  0  0
   10.5975   -0.2783    0.6133 H   0  0  0  0  0  0  0  0  0  0  0  0
    9.2786   -0.1779    2.7119 H   0  0  0  0  0  0  0  0  0  0  0  0
    6.8425    0.1752    2.6315 H   0  0  0  0  0  0  0  0  0  0  0  0
    4.7799    0.5057    1.3277 H   0  0  0  0  0  0  0  0  0  0  0  0
  1  2  1  0  0  0  0
  1 29  1  0  0  0  0
  1 30  1  0  0  0  0
  2  3  2  0  0  0  0
  2  4  1  0  0  0  0
  4  5  1  0  0  0  0
  4 19  1  0  0  0  0
  4 31  1  0  0  0  0
  5  6  1  0  0  0  0
  5 32  1  0  0  0  0
  6  7  2  0  0  0  0
  6  8  1  0  0  0  0
  8  9  2  0  0  0  0
  8 18  1  0  0  0  0
  9 10  1  0  0  0  0
  9 11  1  0  0  0  0
 10 33  1  0  0  0  0
 11 12  2  0  0  0  0
 11 34  1  0  0  0  0
 12 13  1  0  0  0  0
 12 35  1  0  0  0  0
 13 14  2  0  0  0  0
 13 18  1  0  0  0  0
 14 15  1  0  0  0  0
 14 36  1  0  0  0  0
 15 16  2  0  0  0  0
 15 37  1  0  0  0  0
 16 17  1  0  0  0  0
 16 38  1  0  0  0  0
 17 18  2  0  0  0  0
 17 39  1  0  0  0  0
 19 20  2  0  0  0  0
 19 28  1  0  0  0  0
 20 21  1  0  0  0  0
 20 40  1  0  0  0  0
 21 22  2  0  0  0  0
 21 41  1  0  0  0  0
 22 23  1  0  0  0  0
 22 27  1  0  0  0  0
 23 24  2  0  0  0  0
 23 42  1  0  0  0  0
 24 25  1  0  0  0  0
 24 43  1  0  0  0  0
 25 26  2  0  0  0  0
 25 44  1  0  0  0  0
 26 27  1  0  0  0  0
 26 45  1  0  0  0  0
 27 28  2  0  0  0  0
 28 46  1  0  0  0  0
M  END
$$$$
