
 OpenBabel01122422383D

 43 46  0  0  0  0  0  0  0  0999 V2000
    2.1769   -1.8875    1.7121 N   0  0  0  0  0  0  0  0  0  0  0  0
    3.1969   -1.5782    1.2538 C   0  0  0  0  0  0  0  0  0  0  0  0
    4.4476   -1.1864    0.7010 C   0  0  0  0  0  0  0  0  0  0  0  0
    5.1411   -0.0349    0.9840 C   0  0  0  0  0  0  0  0  0  0  0  0
    6.3092   -0.0781    0.2519 N   0  0  0  0  0  0  0  0  0  0  0  0
    7.3794    0.8575    0.2724 C   0  0  0  0  0  0  0  0  0  0  0  0
    7.3771    1.9196    1.1839 C   0  0  0  0  0  0  0  0  0  0  0  0
    8.4511    2.8137    1.2304 C   0  0  0  0  0  0  0  0  0  0  0  0
    9.5384    2.6672    0.3710 C   0  0  0  0  0  0  0  0  0  0  0  0
   10.6701    3.5100    0.3921 N   0  0  0  0  0  0  0  0  0  0  0  0
   11.0004    4.4360    1.3729 C   0  0  0  0  0  0  0  0  0  0  0  0
   10.3324    4.6739    2.3697 O   0  0  0  0  0  0  0  0  0  0  0  0
   12.2309    5.1445    1.0943 C   0  0  0  0  0  0  0  0  0  0  0  0
   13.1554    5.7101    1.9665 C   0  0  0  0  0  0  0  0  0  0  0  0
   13.1797    5.6190    3.4310 C   0  0  0  0  0  0  0  0  0  0  0  0
   12.7743    4.6312    4.0386 O   0  0  0  0  0  0  0  0  0  0  0  0
   13.8038    6.7427    4.1944 C   0  0  0  0  0  0  0  0  0  0  0  0
   14.3988    6.4698    5.4340 C   0  0  0  0  0  0  0  0  0  0  0  0
   15.0250    7.4907    6.1540 C   0  0  0  0  0  0  0  0  0  0  0  0
   15.0467    8.7905    5.6491 C   0  0  0  0  0  0  0  0  0  0  0  0
   14.4294    9.0766    4.4330 C   0  0  0  0  0  0  0  0  0  0  0  0
   13.8033    8.0587    3.7105 C   0  0  0  0  0  0  0  0  0  0  0  0
   14.1507    6.3569    1.2437 N   0  0  0  0  0  0  0  0  0  0  0  0
   13.8466    6.1944   -0.0156 C   0  0  0  0  0  0  0  0  0  0  0  0
   12.6948    5.4822   -0.1589 N   0  0  0  0  0  0  0  0  0  0  0  0
    9.5248    1.6224   -0.5625 C   0  0  0  0  0  0  0  0  0  0  0  0
    8.4600    0.7128   -0.6048 C   0  0  0  0  0  0  0  0  0  0  0  0
    6.3532   -1.1868   -0.5372 N   0  0  0  0  0  0  0  0  0  0  0  0
    5.2399   -1.8602   -0.2347 C   0  0  0  0  0  0  0  0  0  0  0  0
    4.9003    0.7892    1.6381 H   0  0  0  0  0  0  0  0  0  0  0  0
    6.5747    2.0767    1.8980 H   0  0  0  0  0  0  0  0  0  0  0  0
    8.4028    3.6139    1.9629 H   0  0  0  0  0  0  0  0  0  0  0  0
   11.3756    3.2990   -0.2972 H   0  0  0  0  0  0  0  0  0  0  0  0
   14.3891    5.4583    5.8353 H   0  0  0  0  0  0  0  0  0  0  0  0
   15.5011    7.2701    7.1062 H   0  0  0  0  0  0  0  0  0  0  0  0
   15.5436    9.5822    6.2044 H   0  0  0  0  0  0  0  0  0  0  0  0
   14.4402   10.0905    4.0408 H   0  0  0  0  0  0  0  0  0  0  0  0
   13.3262    8.3067    2.7659 H   0  0  0  0  0  0  0  0  0  0  0  0
   14.4117    6.5709   -0.8585 H   0  0  0  0  0  0  0  0  0  0  0  0
   12.2380    5.2790   -1.0364 H   0  0  0  0  0  0  0  0  0  0  0  0
   10.3530    1.4774   -1.2518 H   0  0  0  0  0  0  0  0  0  0  0  0
    8.4942   -0.1057   -1.3221 H   0  0  0  0  0  0  0  0  0  0  0  0
    5.0565   -2.8124   -0.7175 H   0  0  0  0  0  0  0  0  0  0  0  0
  1  2  3  0  0  0  0
  2  3  1  0  0  0  0
  3  4  2  0  0  0  0
  3 29  1  0  0  0  0
  4  5  1  0  0  0  0
  4 30  1  0  0  0  0
  5  6  1  0  0  0  0
  5 28  1  0  0  0  0
  6  7  2  0  0  0  0
  6 27  1  0  0  0  0
  7  8  1  0  0  0  0
  7 31  1  0  0  0  0
  8  9  2  0  0  0  0
  8 32  1  0  0  0  0
  9 10  1  0  0  0  0
  9 26  1  0  0  0  0
 10 11  1  0  0  0  0
 10 33  1  0  0  0  0
 11 12  2  0  0  0  0
 11 13  1  0  0  0  0
 13 14  2  0  0  0  0
 13 25  1  0  0  0  0
 14 15  1  0  0  0  0
 14 23  1  0  0  0  0
 15 16  2  0  0  0  0
 15 17  1  0  0  0  0
 17 18  2  0  0  0  0
 17 22  1  0  0  0  0
 18 19  1  0  0  0  0
 18 34  1  0  0  0  0
 19 20  2  0  0  0  0
 19 35  1  0  0  0  0
 20 21  1  0  0  0  0
 20 36  1  0  0  0  0
 21 22  2  0  0  0  0
 21 37  1  0  0  0  0
 22 38  1  0  0  0  0
 23 24  2  0  0  0  0
 24 25  1  0  0  0  0
 24 39  1  0  0  0  0
 25 40  1  0  0  0  0
 26 27  2  0  0  0  0
 26 41  1  0  0  0  0
 27 42  1  0  0  0  0
 28 29  2  0  0  0  0
 29 43  1  0  0  0  0
M  END
$$$$
