
 OpenBabel01122422383D

 47 49  0  0  1  0  0  0  0  0999 V2000
    0.9672   -1.0406   -1.0961 C   0  0  0  0  0  0  0  0  0  0  0  0
    2.3961   -0.9578   -0.9769 N   0  0  0  0  0  0  0  0  0  0  0  0
    3.1428   -0.2086   -1.8566 C   0  0  0  0  0  0  0  0  0  0  0  0
    2.6517    0.4082   -2.7959 O   0  0  0  0  0  0  0  0  0  0  0  0
    4.6100   -0.1671   -1.6276 C   0  0  0  0  0  0  0  0  0  0  0  0
    5.4001    0.5849   -2.5033 C   0  0  0  0  0  0  0  0  0  0  0  0
    6.7793    0.6577   -2.3046 C   0  0  0  0  0  0  0  0  0  0  0  0
    7.3886   -0.0340   -1.2438 C   0  0  0  0  0  0  0  0  0  0  0  0
    8.8499    0.1392   -1.0689 C   0  0  0  0  0  0  0  0  0  0  0  0
    9.3162    1.2092   -1.4473 O   0  0  0  0  0  0  0  0  0  0  0  0
    9.5691   -0.9351   -0.5588 N   0  0  0  0  0  0  0  0  0  0  0  0
   10.9750   -0.9083   -0.3781 C   0  0  0  0  0  0  0  0  0  0  0  0
   11.6946    0.2841   -0.3269 C   0  0  0  0  0  0  0  0  0  0  0  0
   13.0882    0.2932   -0.2446 C   0  0  0  0  0  0  0  0  0  0  0  0
   13.8048   -0.9063   -0.1689 C   0  0  0  0  0  0  0  0  0  0  0  0
   15.3384   -0.9017   -0.1078 C   0  0  3  0  0  0  0  0  0  0  0  0
   15.8725   -2.0575    0.6537 C   0  0  0  0  0  0  0  0  0  0  0  0
   16.2167   -2.9870    1.2760 N   0  0  0  0  0  0  0  0  0  0  0  0
   16.0099   -0.7399   -1.4767 C   0  0  0  0  0  0  0  0  0  0  0  0
   16.8657    0.3547   -1.7035 C   0  0  0  0  0  0  0  0  0  0  0  0
   17.4328    0.5801   -2.9612 C   0  0  0  0  0  0  0  0  0  0  0  0
   17.1966   -0.3114   -4.0018 C   0  0  0  0  0  0  0  0  0  0  0  0
   16.3887   -1.4254   -3.7866 C   0  0  0  0  0  0  0  0  0  0  0  0
   15.7891   -1.6343   -2.5400 C   0  0  0  0  0  0  0  0  0  0  0  0
   13.0692   -2.1078   -0.1644 C   0  0  0  0  0  0  0  0  0  0  0  0
   11.6711   -2.1139   -0.2676 C   0  0  0  0  0  0  0  0  0  0  0  0
    6.6064   -0.7894   -0.3723 C   0  0  0  0  0  0  0  0  0  0  0  0
    5.2275   -0.8437   -0.5715 C   0  0  0  0  0  0  0  0  0  0  0  0
    4.5076   -1.5767    0.2918 F   0  0  0  0  0  0  0  0  0  0  0  0
    0.5804   -1.6206   -0.2550 H   0  0  0  0  0  0  0  0  0  0  0  0
    0.7193   -1.5319   -2.0403 H   0  0  0  0  0  0  0  0  0  0  0  0
    0.5467   -0.0333   -1.0848 H   0  0  0  0  0  0  0  0  0  0  0  0
    2.8531   -1.4692   -0.2302 H   0  0  0  0  0  0  0  0  0  0  0  0
    4.9476    1.1209   -3.3360 H   0  0  0  0  0  0  0  0  0  0  0  0
    7.3811    1.2638   -2.9822 H   0  0  0  0  0  0  0  0  0  0  0  0
    9.1173   -1.8358   -0.4777 H   0  0  0  0  0  0  0  0  0  0  0  0
   11.1906    1.2443   -0.3552 H   0  0  0  0  0  0  0  0  0  0  0  0
   13.5777    1.2662   -0.2514 H   0  0  0  0  0  0  0  0  0  0  0  0
   15.6134   -0.0170    0.4879 H   0  0  0  0  0  0  0  0  0  0  0  0
   17.0806    1.0657   -0.9075 H   0  0  0  0  0  0  0  0  0  0  0  0
   18.0440    1.4631   -3.1323 H   0  0  0  0  0  0  0  0  0  0  0  0
   17.6339   -0.1334   -4.9829 H   0  0  0  0  0  0  0  0  0  0  0  0
   16.2086   -2.1258   -4.6022 H   0  0  0  0  0  0  0  0  0  0  0  0
   15.1321   -2.4936   -2.4252 H   0  0  0  0  0  0  0  0  0  0  0  0
   13.5807   -3.0670   -0.0941 H   0  0  0  0  0  0  0  0  0  0  0  0
   11.1597   -3.0719   -0.3050 H   0  0  0  0  0  0  0  0  0  0  0  0
    7.0242   -1.3161    0.4778 H   0  0  0  0  0  0  0  0  0  0  0  0
  1  2  1  0  0  0  0
  1 30  1  0  0  0  0
  1 31  1  0  0  0  0
  1 32  1  0  0  0  0
  2  3  1  0  0  0  0
  2 33  1  0  0  0  0
  3  4  2  0  0  0  0
  3  5  1  0  0  0  0
  5  6  2  0  0  0  0
  5 28  1  0  0  0  0
  6  7  1  0  0  0  0
  6 34  1  0  0  0  0
  7  8  2  0  0  0  0
  7 35  1  0  0  0  0
  8  9  1  0  0  0  0
  8 27  1  0  0  0  0
  9 10  2  0  0  0  0
  9 11  1  0  0  0  0
 11 12  1  0  0  0  0
 11 36  1  0  0  0  0
 12 13  2  0  0  0  0
 12 26  1  0  0  0  0
 13 14  1  0  0  0  0
 13 37  1  0  0  0  0
 14 15  2  0  0  0  0
 14 38  1  0  0  0  0
 15 16  1  0  0  0  0
 15 25  1  0  0  0  0
 16 17  1  0  0  0  0
 16 19  1  0  0  0  0
 16 39  1  0  0  0  0
 17 18  3  0  0  0  0
 19 20  2  0  0  0  0
 19 24  1  0  0  0  0
 20 21  1  0  0  0  0
 20 40  1  0  0  0  0
 21 22  2  0  0  0  0
 21 41  1  0  0  0  0
 22 23  1  0  0  0  0
 22 42  1  0  0  0  0
 23 24  2  0  0  0  0
 23 43  1  0  0  0  0
 24 44  1  0  0  0  0
 25 26  2  0  0  0  0
 25 45  1  0  0  0  0
 26 46  1  0  0  0  0
 27 28  2  0  0  0  0
 27 47  1  0  0  0  0
 28 29  1  0  0  0  0
M  END
$$$$
