
 OpenBabel01122422383D

 41 44  0  0  0  0  0  0  0  0999 V2000
   -0.0540   -6.6044    4.0200 N   0  0  0  0  0  0  0  0  0  0  0  0
    0.5226   -7.1337    3.1586 C   0  0  0  0  0  0  0  0  0  0  0  0
    1.1088   -7.8279    2.0531 C   0  0  0  0  0  0  0  0  0  0  0  0
    0.8815   -9.2084    1.9558 C   0  0  0  0  0  0  0  0  0  0  0  0
    1.2591   -9.8513    0.7954 C   0  0  0  0  0  0  0  0  0  0  0  0
    1.8265   -9.2155   -0.2513 N   0  0  0  0  0  0  0  0  0  0  0  0
    2.0906   -7.8878   -0.1114 C   0  0  0  0  0  0  0  0  0  0  0  0
    1.7860   -7.1599    1.0271 C   0  0  0  0  0  0  0  0  0  0  0  0
    2.2186   -5.7524    1.1834 C   0  0  0  0  0  0  0  0  0  0  0  0
    2.4013   -5.2508    2.2808 O   0  0  0  0  0  0  0  0  0  0  0  0
    2.3239   -5.1148   -0.0085 O   0  0  0  0  0  0  0  0  0  0  0  0
    2.6185   -3.7003    0.1040 C   0  0  0  0  0  0  0  0  0  0  0  0
    4.1038   -3.4793    0.1142 C   0  0  0  0  0  0  0  0  0  0  0  0
    4.9910   -4.4592    0.0494 N   0  0  0  0  0  0  0  0  0  0  0  0
    6.2168   -3.8656    0.0143 C   0  0  0  0  0  0  0  0  0  0  0  0
    6.1074   -2.4783    0.0404 C   0  0  0  0  0  0  0  0  0  0  0  0
    7.2690   -1.6880    0.0910 C   0  0  0  0  0  0  0  0  0  0  0  0
    7.2349   -0.3573    0.2265 F   0  0  0  0  0  0  0  0  0  0  0  0
    8.5226   -2.2980    0.0314 C   0  0  0  0  0  0  0  0  0  0  0  0
    8.6345   -3.6808   -0.0276 C   0  0  0  0  0  0  0  0  0  0  0  0
    7.4843   -4.4759   -0.0226 C   0  0  0  0  0  0  0  0  0  0  0  0
    4.7335   -2.2212    0.0804 N   0  0  0  0  0  0  0  0  0  0  0  0
    4.1264   -0.9211    0.0890 C   0  0  0  0  0  0  0  0  0  0  0  0
    4.7279    0.1393   -0.6062 C   0  0  0  0  0  0  0  0  0  0  0  0
    4.2334    1.4431   -0.5026 C   0  0  0  0  0  0  0  0  0  0  0  0
    3.0934    1.6961    0.2498 C   0  0  0  0  0  0  0  0  0  0  0  0
    2.4493    0.6447    0.8951 C   0  0  0  0  0  0  0  0  0  0  0  0
    2.9680   -0.6547    0.8283 C   0  0  0  0  0  0  0  0  0  0  0  0
    0.4013   -9.7619    2.7590 H   0  0  0  0  0  0  0  0  0  0  0  0
    1.0958  -10.9188    0.6649 H   0  0  0  0  0  0  0  0  0  0  0  0
    2.5733   -7.4347   -0.9729 H   0  0  0  0  0  0  0  0  0  0  0  0
    2.1312   -3.3083    0.9975 H   0  0  0  0  0  0  0  0  0  0  0  0
    2.1705   -3.2161   -0.7693 H   0  0  0  0  0  0  0  0  0  0  0  0
    9.4123   -1.6736    0.0509 H   0  0  0  0  0  0  0  0  0  0  0  0
    9.6165   -4.1456   -0.0554 H   0  0  0  0  0  0  0  0  0  0  0  0
    7.5596   -5.5586   -0.0343 H   0  0  0  0  0  0  0  0  0  0  0  0
    5.5942   -0.0148   -1.2446 H   0  0  0  0  0  0  0  0  0  0  0  0
    4.7504    2.2592   -1.0018 H   0  0  0  0  0  0  0  0  0  0  0  0
    2.7147    2.7107    0.3424 H   0  0  0  0  0  0  0  0  0  0  0  0
    1.5589    0.8423    1.4881 H   0  0  0  0  0  0  0  0  0  0  0  0
    2.4800   -1.4003    1.4427 H   0  0  0  0  0  0  0  0  0  0  0  0
  1  2  3  0  0  0  0
  2  3  1  0  0  0  0
  3  4  2  0  0  0  0
  3  8  1  0  0  0  0
  4  5  1  0  0  0  0
  4 29  1  0  0  0  0
  5  6  2  0  0  0  0
  5 30  1  0  0  0  0
  6  7  1  0  0  0  0
  7  8  2  0  0  0  0
  7 31  1  0  0  0  0
  8  9  1  0  0  0  0
  9 10  2  0  0  0  0
  9 11  1  0  0  0  0
 11 12  1  0  0  0  0
 12 13  1  0  0  0  0
 12 32  1  0  0  0  0
 12 33  1  0  0  0  0
 13 14  2  0  0  0  0
 13 22  1  0  0  0  0
 14 15  1  0  0  0  0
 15 16  2  0  0  0  0
 15 21  1  0  0  0  0
 16 17  1  0  0  0  0
 16 22  1  0  0  0  0
 17 18  1  0  0  0  0
 17 19  2  0  0  0  0
 19 20  1  0  0  0  0
 19 34  1  0  0  0  0
 20 21  2  0  0  0  0
 20 35  1  0  0  0  0
 21 36  1  0  0  0  0
 22 23  1  0  0  0  0
 23 24  2  0  0  0  0
 23 28  1  0  0  0  0
 24 25  1  0  0  0  0
 24 37  1  0  0  0  0
 25 26  2  0  0  0  0
 25 38  1  0  0  0  0
 26 27  1  0  0  0  0
 26 39  1  0  0  0  0
 27 28  2  0  0  0  0
 27 40  1  0  0  0  0
 28 41  1  0  0  0  0
M  END
$$$$
