
 OpenBabel01122422383D

 60 63  0  0  0  0  0  0  0  0999 V2000
    5.6764   10.9873    4.2643 C   0  0  0  0  0  0  0  0  0  0  0  0
    4.8062    9.7877    4.1842 C   0  0  0  0  0  0  0  0  0  0  0  0
    4.8961    8.8104    3.2965 N   0  0  0  0  0  0  0  0  0  0  0  0
    3.8988    7.9026    3.6175 C   0  0  0  0  0  0  0  0  0  0  0  0
    3.6783    6.6430    2.8400 C   0  0  0  0  0  0  0  0  0  0  0  0
    4.6512    6.5586    1.7809 N   0  0  0  0  0  0  0  0  0  0  0  0
    4.6532    5.5372    0.8745 C   0  0  0  0  0  0  0  0  0  0  0  0
    3.9016    4.5712    0.9881 O   0  0  0  0  0  0  0  0  0  0  0  0
    5.5259    5.6953   -0.1929 N   0  0  0  0  0  0  0  0  0  0  0  0
    5.7317    4.5829   -1.1087 C   0  0  0  0  0  0  0  0  0  0  0  0
    6.5052    6.7848   -0.2717 C   0  0  0  0  0  0  0  0  0  0  0  0
    5.9180    8.1715   -0.5969 C   0  0  0  0  0  0  0  0  0  0  0  0
    6.6512    9.1568   -0.6773 O   0  0  0  0  0  0  0  0  0  0  0  0
    4.5530    8.2356   -0.7271 N   0  0  0  0  0  0  0  0  0  0  0  0
    3.8469    9.4803   -1.0159 C   0  0  0  0  0  0  0  0  0  0  0  0
    3.7387    9.6463   -2.5336 C   0  0  0  0  0  0  0  0  0  0  0  0
    2.6485    9.1635   -3.2749 C   0  0  0  0  0  0  0  0  0  0  0  0
    2.6524    9.2198   -4.6732 C   0  0  0  0  0  0  0  0  0  0  0  0
    3.7434    9.7568   -5.3550 C   0  0  0  0  0  0  0  0  0  0  0  0
    4.8237   10.2604   -4.6379 C   0  0  0  0  0  0  0  0  0  0  0  0
    4.8205   10.2070   -3.2423 C   0  0  0  0  0  0  0  0  0  0  0  0
    2.5246    9.6153   -0.2451 C   0  0  0  0  0  0  0  0  0  0  0  0
    2.0372   10.9034    0.0517 C   0  0  0  0  0  0  0  0  0  0  0  0
    0.8137   11.0864    0.7137 C   0  0  0  0  0  0  0  0  0  0  0  0
    0.0613    9.9845    1.1008 C   0  0  0  0  0  0  0  0  0  0  0  0
    0.5344    8.7016    0.8422 C   0  0  0  0  0  0  0  0  0  0  0  0
    1.7522    8.5172    0.1713 C   0  0  0  0  0  0  0  0  0  0  0  0
    3.1883    8.3548    4.7086 C   0  0  0  0  0  0  0  0  0  0  0  0
    2.0833    7.8868    5.4715 C   0  0  0  0  0  0  0  0  0  0  0  0
    1.6481    8.6134    6.5179 C   0  0  0  0  0  0  0  0  0  0  0  0
    2.2818    9.8705    6.8880 C   0  0  0  0  0  0  0  0  0  0  0  0
    3.3238   10.3139    6.1624 C   0  0  0  0  0  0  0  0  0  0  0  0
    3.7720    9.5581    5.0750 N   0  0  0  0  0  0  0  0  0  0  0  0
    6.4295   10.9795    3.4676 H   0  0  0  0  0  0  0  0  0  0  0  0
    6.2049   11.0206    5.2231 H   0  0  0  0  0  0  0  0  0  0  0  0
    5.0886   11.9049    4.1614 H   0  0  0  0  0  0  0  0  0  0  0  0
    2.6795    6.6425    2.3937 H   0  0  0  0  0  0  0  0  0  0  0  0
    3.7771    5.7604    3.4796 H   0  0  0  0  0  0  0  0  0  0  0  0
    5.0899    7.4471    1.5818 H   0  0  0  0  0  0  0  0  0  0  0  0
    4.9570    3.8172   -1.0182 H   0  0  0  0  0  0  0  0  0  0  0  0
    6.7017    4.1219   -0.8891 H   0  0  0  0  0  0  0  0  0  0  0  0
    5.7397    4.9624   -2.1350 H   0  0  0  0  0  0  0  0  0  0  0  0
    7.2373    6.5525   -1.0528 H   0  0  0  0  0  0  0  0  0  0  0  0
    7.0337    6.8457    0.6853 H   0  0  0  0  0  0  0  0  0  0  0  0
    4.0709    7.3641   -0.9051 H   0  0  0  0  0  0  0  0  0  0  0  0
    4.4830   10.2939   -0.6397 H   0  0  0  0  0  0  0  0  0  0  0  0
    1.7859    8.7292   -2.7757 H   0  0  0  0  0  0  0  0  0  0  0  0
    1.8056    8.8302   -5.2325 H   0  0  0  0  0  0  0  0  0  0  0  0
    3.7532    9.7755   -6.4404 H   0  0  0  0  0  0  0  0  0  0  0  0
    5.6782   10.6799   -5.1628 H   0  0  0  0  0  0  0  0  0  0  0  0
    5.6892   10.5838   -2.7023 H   0  0  0  0  0  0  0  0  0  0  0  0
    2.6118   11.7831   -0.2336 H   0  0  0  0  0  0  0  0  0  0  0  0
    0.4565   12.0899    0.9211 H   0  0  0  0  0  0  0  0  0  0  0  0
   -0.8889   10.1247    1.6078 H   0  0  0  0  0  0  0  0  0  0  0  0
   -0.0449    7.8394    1.1603 H   0  0  0  0  0  0  0  0  0  0  0  0
    2.0797    7.4982   -0.0139 H   0  0  0  0  0  0  0  0  0  0  0  0
    1.6026    6.9520    5.2050 H   0  0  0  0  0  0  0  0  0  0  0  0
    0.8067    8.2760    7.1151 H   0  0  0  0  0  0  0  0  0  0  0  0
    1.8983   10.4209    7.7399 H   0  0  0  0  0  0  0  0  0  0  0  0
    3.8378   11.2394    6.3845 H   0  0  0  0  0  0  0  0  0  0  0  0
  1  2  1  0  0  0  0
  1 34  1  0  0  0  0
  1 35  1  0  0  0  0
  1 36  1  0  0  0  0
  2  3  2  0  0  0  0
  2 33  1  0  0  0  0
  3  4  1  0  0  0  0
  4  5  1  0  0  0  0
  4 28  2  0  0  0  0
  5  6  1  0  0  0  0
  5 37  1  0  0  0  0
  5 38  1  0  0  0  0
  6  7  1  0  0  0  0
  6 39  1  0  0  0  0
  7  8  2  0  0  0  0
  7  9  1  0  0  0  0
  9 10  1  0  0  0  0
  9 11  1  0  0  0  0
 10 40  1  0  0  0  0
 10 41  1  0  0  0  0
 10 42  1  0  0  0  0
 11 12  1  0  0  0  0
 11 43  1  0  0  0  0
 11 44  1  0  0  0  0
 12 13  2  0  0  0  0
 12 14  1  0  0  0  0
 14 15  1  0  0  0  0
 14 45  1  0  0  0  0
 15 16  1  0  0  0  0
 15 22  1  0  0  0  0
 15 46  1  0  0  0  0
 16 17  2  0  0  0  0
 16 21  1  0  0  0  0
 17 18  1  0  0  0  0
 17 47  1  0  0  0  0
 18 19  2  0  0  0  0
 18 48  1  0  0  0  0
 19 20  1  0  0  0  0
 19 49  1  0  0  0  0
 20 21  2  0  0  0  0
 20 50  1  0  0  0  0
 21 51  1  0  0  0  0
 22 23  2  0  0  0  0
 22 27  1  0  0  0  0
 23 24  1  0  0  0  0
 23 52  1  0  0  0  0
 24 25  2  0  0  0  0
 24 53  1  0  0  0  0
 25 26  1  0  0  0  0
 25 54  1  0  0  0  0
 26 27  2  0  0  0  0
 26 55  1  0  0  0  0
 27 56  1  0  0  0  0
 28 29  1  0  0  0  0
 28 33  1  0  0  0  0
 29 30  2  0  0  0  0
 29 57  1  0  0  0  0
 30 31  1  0  0  0  0
 30 58  1  0  0  0  0
 31 32  2  0  0  0  0
 31 59  1  0  0  0  0
 32 33  1  0  0  0  0
 32 60  1  0  0  0  0
M  END
$$$$
