
 OpenBabel01122422383D

 53 56  0  0  1  0  0  0  0  0999 V2000
    2.3492   -2.2891    2.7131 C   0  0  0  0  0  0  0  0  0  0  0  0
    2.2328   -1.4864    1.5196 N   0  0  0  0  0  0  0  0  0  0  0  0
    1.7835   -1.8935    0.3005 C   0  0  0  0  0  0  0  0  0  0  0  0
    1.8336   -0.7821   -0.5073 C   0  0  0  0  0  0  0  0  0  0  0  0
    2.3332    0.2663    0.3159 C   0  0  0  0  0  0  0  0  0  0  0  0
    2.5241    1.7223   -0.0666 C   0  0  3  0  0  0  0  0  0  0  0  0
    2.3993    2.5791    1.0950 N   0  0  0  0  0  0  0  0  0  0  0  0
    1.4035    3.5154    1.2186 C   0  0  0  0  0  0  0  0  0  0  0  0
    0.5954    3.7694    0.3283 O   0  0  0  0  0  0  0  0  0  0  0  0
    1.4051    4.2565    2.5467 C   0  0  0  0  0  0  0  0  0  0  0  0
    2.2955    5.4725    2.5004 C   0  0  0  0  0  0  0  0  0  0  0  0
    1.7731    6.6930    2.0602 C   0  0  0  0  0  0  0  0  0  0  0  0
    2.6038    7.8019    1.9102 C   0  0  0  0  0  0  0  0  0  0  0  0
    3.9536    7.7282    2.2676 C   0  0  0  0  0  0  0  0  0  0  0  0
    4.8408    8.7813    2.1717 O   0  0  0  0  0  0  0  0  0  0  0  0
    4.3876   10.0673    2.3628 C   0  0  0  0  0  0  0  0  0  0  0  0
    5.0368   11.0765    1.6577 C   0  0  0  0  0  0  0  0  0  0  0  0
    4.5743   12.3744    1.8001 C   0  0  0  0  0  0  0  0  0  0  0  0
    3.5266   12.7148    2.5798 N   0  0  0  0  0  0  0  0  0  0  0  0
    2.9392   11.7159    3.2815 C   0  0  0  0  0  0  0  0  0  0  0  0
    1.7924   12.0714    4.0598 C   0  0  0  0  0  0  0  0  0  0  0  0
    0.8401   12.3001    4.6948 N   0  0  0  0  0  0  0  0  0  0  0  0
    3.3571   10.3977    3.2362 C   0  0  0  0  0  0  0  0  0  0  0  0
    4.4832    6.5115    2.6988 C   0  0  0  0  0  0  0  0  0  0  0  0
    3.6609    5.3859    2.8064 C   0  0  0  0  0  0  0  0  0  0  0  0
    3.9029    1.8528   -0.7045 C   0  0  0  0  0  0  0  0  0  0  0  0
    3.9959    2.3652   -2.0138 C   0  0  0  0  0  0  0  0  0  0  0  0
    5.2348    2.5190   -2.6416 C   0  0  0  0  0  0  0  0  0  0  0  0
    6.3956    2.1908   -1.9564 C   0  0  0  0  0  0  0  0  0  0  0  0
    7.5835    2.3436   -2.5579 F   0  0  0  0  0  0  0  0  0  0  0  0
    6.3408    1.7093   -0.6550 C   0  0  0  0  0  0  0  0  0  0  0  0
    5.0994    1.5351   -0.0304 C   0  0  0  0  0  0  0  0  0  0  0  0
    2.5808   -0.1841    1.5643 N   0  0  0  0  0  0  0  0  0  0  0  0
    2.0734   -3.3232    2.4906 H   0  0  0  0  0  0  0  0  0  0  0  0
    1.6769   -1.8779    3.4704 H   0  0  0  0  0  0  0  0  0  0  0  0
    3.3860   -2.2449    3.0547 H   0  0  0  0  0  0  0  0  0  0  0  0
    1.4616   -2.9084    0.1135 H   0  0  0  0  0  0  0  0  0  0  0  0
    1.5339   -0.7284   -1.5456 H   0  0  0  0  0  0  0  0  0  0  0  0
    1.7495    1.9857   -0.7966 H   0  0  0  0  0  0  0  0  0  0  0  0
    2.9836    2.3447    1.8842 H   0  0  0  0  0  0  0  0  0  0  0  0
    1.7094    3.5850    3.3580 H   0  0  0  0  0  0  0  0  0  0  0  0
    0.3734    4.5519    2.7789 H   0  0  0  0  0  0  0  0  0  0  0  0
    0.7186    6.7811    1.8040 H   0  0  0  0  0  0  0  0  0  0  0  0
    2.1700    8.7163    1.5166 H   0  0  0  0  0  0  0  0  0  0  0  0
    5.8743   10.8587    1.0042 H   0  0  0  0  0  0  0  0  0  0  0  0
    5.0402   13.1999    1.2687 H   0  0  0  0  0  0  0  0  0  0  0  0
    2.8556    9.6447    3.8352 H   0  0  0  0  0  0  0  0  0  0  0  0
    5.5397    6.4333    2.9419 H   0  0  0  0  0  0  0  0  0  0  0  0
    4.0992    4.4400    3.1165 H   0  0  0  0  0  0  0  0  0  0  0  0
    3.0967    2.6571   -2.5534 H   0  0  0  0  0  0  0  0  0  0  0  0
    5.2980    2.8973   -3.6566 H   0  0  0  0  0  0  0  0  0  0  0  0
    7.2640    1.4702   -0.1360 H   0  0  0  0  0  0  0  0  0  0  0  0
    5.0749    1.1434    0.9846 H   0  0  0  0  0  0  0  0  0  0  0  0
  1  2  1  0  0  0  0
  1 34  1  0  0  0  0
  1 35  1  0  0  0  0
  1 36  1  0  0  0  0
  2  3  1  0  0  0  0
  2 33  1  0  0  0  0
  3  4  2  0  0  0  0
  3 37  1  0  0  0  0
  4  5  1  0  0  0  0
  4 38  1  0  0  0  0
  5  6  1  0  0  0  0
  5 33  2  0  0  0  0
  6  7  1  0  0  0  0
  6 26  1  0  0  0  0
  6 39  1  0  0  0  0
  7  8  1  0  0  0  0
  7 40  1  0  0  0  0
  8  9  2  0  0  0  0
  8 10  1  0  0  0  0
 10 11  1  0  0  0  0
 10 41  1  0  0  0  0
 10 42  1  0  0  0  0
 11 12  2  0  0  0  0
 11 25  1  0  0  0  0
 12 13  1  0  0  0  0
 12 43  1  0  0  0  0
 13 14  2  0  0  0  0
 13 44  1  0  0  0  0
 14 15  1  0  0  0  0
 14 24  1  0  0  0  0
 15 16  1  0  0  0  0
 16 17  2  0  0  0  0
 16 23  1  0  0  0  0
 17 18  1  0  0  0  0
 17 45  1  0  0  0  0
 18 19  2  0  0  0  0
 18 46  1  0  0  0  0
 19 20  1  0  0  0  0
 20 21  1  0  0  0  0
 20 23  2  0  0  0  0
 21 22  3  0  0  0  0
 23 47  1  0  0  0  0
 24 25  2  0  0  0  0
 24 48  1  0  0  0  0
 25 49  1  0  0  0  0
 26 27  2  0  0  0  0
 26 32  1  0  0  0  0
 27 28  1  0  0  0  0
 27 50  1  0  0  0  0
 28 29  2  0  0  0  0
 28 51  1  0  0  0  0
 29 30  1  0  0  0  0
 29 31  1  0  0  0  0
 31 32  2  0  0  0  0
 31 52  1  0  0  0  0
 32 53  1  0  0  0  0
M  END
$$$$
