
 OpenBabel01122422383D

 47 50  0  0  0  0  0  0  0  0999 V2000
    0.9340    0.3369   -0.0751 O   0  0  0  0  0  0  0  0  0  0  0  0
    2.1284    0.0450   -0.0108 C   0  0  0  0  0  0  0  0  0  0  0  0
    2.8657    0.0658    1.3245 C   0  0  0  0  0  0  0  0  0  0  0  0
    3.0789    1.4615    1.6570 N   0  0  0  0  0  0  0  0  0  0  0  0
    2.0946    2.1825    2.2811 C   0  0  0  0  0  0  0  0  0  0  0  0
    2.1545    3.4481    2.5244 N   0  0  0  0  0  0  0  0  0  0  0  0
    3.2792    4.1077    2.0994 C   0  0  0  0  0  0  0  0  0  0  0  0
    3.3195    5.5704    2.2495 C   0  0  0  0  0  0  0  0  0  0  0  0
    2.8057    6.3819    1.2273 C   0  0  0  0  0  0  0  0  0  0  0  0
    2.8806    7.7715    1.3227 C   0  0  0  0  0  0  0  0  0  0  0  0
    3.4690    8.3590    2.4414 C   0  0  0  0  0  0  0  0  0  0  0  0
    3.9728    7.5601    3.4691 C   0  0  0  0  0  0  0  0  0  0  0  0
    3.8988    6.1680    3.3752 C   0  0  0  0  0  0  0  0  0  0  0  0
    4.3142    3.5192    1.4892 C   0  0  0  0  0  0  0  0  0  0  0  0
    4.2279    2.0767    1.2261 C   0  0  0  0  0  0  0  0  0  0  0  0
    5.1377    1.5074    0.6252 O   0  0  0  0  0  0  0  0  0  0  0  0
    2.9252   -0.2627   -1.0958 N   0  0  0  0  0  0  0  0  0  0  0  0
    2.4788   -0.2346   -2.4345 C   0  0  0  0  0  0  0  0  0  0  0  0
    2.9238   -1.2452   -3.2991 C   0  0  0  0  0  0  0  0  0  0  0  0
    3.6750   -2.2214   -2.7546 F   0  0  0  0  0  0  0  0  0  0  0  0
    2.5389   -1.3083   -4.6516 C   0  0  0  0  0  0  0  0  0  0  0  0
    2.9078   -2.4456   -5.5375 C   0  0  0  0  0  0  0  0  0  0  0  0
    2.0900   -2.8371   -6.6110 C   0  0  0  0  0  0  0  0  0  0  0  0
    2.4551   -3.9200   -7.4005 C   0  0  0  0  0  0  0  0  0  0  0  0
    3.5646   -4.6548   -7.1991 N   0  0  0  0  0  0  0  0  0  0  0  0
    4.3442   -4.2837   -6.1664 C   0  0  0  0  0  0  0  0  0  0  0  0
    4.0688   -3.2057   -5.3358 C   0  0  0  0  0  0  0  0  0  0  0  0
    1.7431   -0.2422   -5.1205 C   0  0  0  0  0  0  0  0  0  0  0  0
    1.3032    0.7806   -4.2700 C   0  0  0  0  0  0  0  0  0  0  0  0
    1.6492    0.7697   -2.9215 C   0  0  0  0  0  0  0  0  0  0  0  0
    3.8148   -0.4763    1.2632 H   0  0  0  0  0  0  0  0  0  0  0  0
    2.2359   -0.4173    2.0791 H   0  0  0  0  0  0  0  0  0  0  0  0
    1.2093    1.6004    2.5804 H   0  0  0  0  0  0  0  0  0  0  0  0
    2.3412    5.9269    0.3561 H   0  0  0  0  0  0  0  0  0  0  0  0
    2.4798    8.3941    0.5267 H   0  0  0  0  0  0  0  0  0  0  0  0
    3.5303    9.4417    2.5156 H   0  0  0  0  0  0  0  0  0  0  0  0
    4.4221    8.0223    4.3443 H   0  0  0  0  0  0  0  0  0  0  0  0
    4.2909    5.5536    4.1823 H   0  0  0  0  0  0  0  0  0  0  0  0
    5.1883    4.0482    1.1349 H   0  0  0  0  0  0  0  0  0  0  0  0
    3.7819   -0.7829   -0.9276 H   0  0  0  0  0  0  0  0  0  0  0  0
    1.1589   -2.3292   -6.8388 H   0  0  0  0  0  0  0  0  0  0  0  0
    1.8376   -4.2344   -8.2373 H   0  0  0  0  0  0  0  0  0  0  0  0
    5.2295   -4.8935   -6.0098 H   0  0  0  0  0  0  0  0  0  0  0  0
    4.7698   -2.9825   -4.5388 H   0  0  0  0  0  0  0  0  0  0  0  0
    1.4516   -0.1854   -6.1670 H   0  0  0  0  0  0  0  0  0  0  0  0
    0.6875    1.5862   -4.6651 H   0  0  0  0  0  0  0  0  0  0  0  0
    1.3044    1.5765   -2.2769 H   0  0  0  0  0  0  0  0  0  0  0  0
  1  2  2  0  0  0  0
  2  3  1  0  0  0  0
  2 17  1  0  0  0  0
  3  4  1  0  0  0  0
  3 31  1  0  0  0  0
  3 32  1  0  0  0  0
  4  5  1  0  0  0  0
  4 15  1  0  0  0  0
  5  6  2  0  0  0  0
  5 33  1  0  0  0  0
  6  7  1  0  0  0  0
  7  8  1  0  0  0  0
  7 14  2  0  0  0  0
  8  9  2  0  0  0  0
  8 13  1  0  0  0  0
  9 10  1  0  0  0  0
  9 34  1  0  0  0  0
 10 11  2  0  0  0  0
 10 35  1  0  0  0  0
 11 12  1  0  0  0  0
 11 36  1  0  0  0  0
 12 13  2  0  0  0  0
 12 37  1  0  0  0  0
 13 38  1  0  0  0  0
 14 15  1  0  0  0  0
 14 39  1  0  0  0  0
 15 16  2  0  0  0  0
 17 18  1  0  0  0  0
 17 40  1  0  0  0  0
 18 19  2  0  0  0  0
 18 30  1  0  0  0  0
 19 20  1  0  0  0  0
 19 21  1  0  0  0  0
 21 22  1  0  0  0  0
 21 28  2  0  0  0  0
 22 23  2  0  0  0  0
 22 27  1  0  0  0  0
 23 24  1  0  0  0  0
 23 41  1  0  0  0  0
 24 25  2  0  0  0  0
 24 42  1  0  0  0  0
 25 26  1  0  0  0  0
 26 27  2  0  0  0  0
 26 43  1  0  0  0  0
 27 44  1  0  0  0  0
 28 29  1  0  0  0  0
 28 45  1  0  0  0  0
 29 30  2  0  0  0  0
 29 46  1  0  0  0  0
 30 47  1  0  0  0  0
M  END
$$$$
