
 OpenBabel01122422353D

 45 48  0  0  0  0  0  0  0  0999 V2000
    1.1516   -0.5589   -0.1165 O   0  0  0  0  0  0  0  0  0  0  0  0
    2.3442   -0.2674   -0.1704 C   0  0  0  0  0  0  0  0  0  0  0  0
    2.9814    0.3153   -1.2503 N   0  0  0  0  0  0  0  0  0  0  0  0
    2.2805    0.5969   -2.4322 C   0  0  0  0  0  0  0  0  0  0  0  0
    1.1473    1.3796   -2.4007 C   0  0  0  0  0  0  0  0  0  0  0  0
    0.5379    1.5947   -3.6104 C   0  0  0  0  0  0  0  0  0  0  0  0
    0.9653    1.0458   -4.7596 N   0  0  0  0  0  0  0  0  0  0  0  0
    2.0813    0.2893   -4.6915 C   0  0  0  0  0  0  0  0  0  0  0  0
    2.4947   -0.4460   -5.9517 C   0  0  0  0  0  0  0  0  0  0  0  0
    3.3725    0.3647   -6.7348 O   0  0  0  0  0  0  0  0  0  0  0  0
    3.7626   -0.1409   -7.9457 C   0  0  0  0  0  0  0  0  0  0  0  0
    3.4504   -1.4036   -8.4541 C   0  0  0  0  0  0  0  0  0  0  0  0
    3.9261   -1.7929   -9.7115 C   0  0  0  0  0  0  0  0  0  0  0  0
    4.7114   -0.9236  -10.4664 C   0  0  0  0  0  0  0  0  0  0  0  0
    5.0236    0.3373   -9.9655 C   0  0  0  0  0  0  0  0  0  0  0  0
    4.5519    0.7237   -8.7093 C   0  0  0  0  0  0  0  0  0  0  0  0
    2.7981    0.0870   -3.5625 N   0  0  0  0  0  0  0  0  0  0  0  0
    3.2099   -0.6121    0.9873 C   0  0  0  0  0  0  0  0  0  0  0  0
    2.9711   -1.7917    1.7062 C   0  0  0  0  0  0  0  0  0  0  0  0
    3.7394   -2.1036    2.8393 C   0  0  0  0  0  0  0  0  0  0  0  0
    4.7140   -1.2021    3.2844 C   0  0  0  0  0  0  0  0  0  0  0  0
    5.4534   -1.4665    4.4617 N   0  0  0  0  0  0  0  0  0  0  0  0
    5.7558   -2.6943    5.0027 C   0  0  0  0  0  0  0  0  0  0  0  0
    6.5064   -2.4409    6.1263 C   0  0  0  0  0  0  0  0  0  0  0  0
    6.6401   -1.0963    6.3266 N   0  0  0  0  0  0  0  0  0  0  0  0
    6.0061   -0.5367    5.3197 C   0  0  0  0  0  0  0  0  0  0  0  0
    4.9329   -0.0253    2.5587 C   0  0  0  0  0  0  0  0  0  0  0  0
    5.8935    0.8421    2.9181 F   0  0  0  0  0  0  0  0  0  0  0  0
    4.2061    0.2666    1.4150 C   0  0  0  0  0  0  0  0  0  0  0  0
    3.9463    0.0525   -1.4044 H   0  0  0  0  0  0  0  0  0  0  0  0
    0.7730    1.8285   -1.4912 H   0  0  0  0  0  0  0  0  0  0  0  0
   -0.3419    2.2259   -3.6944 H   0  0  0  0  0  0  0  0  0  0  0  0
    1.5855   -0.6809   -6.5205 H   0  0  0  0  0  0  0  0  0  0  0  0
    2.9934   -1.3803   -5.6664 H   0  0  0  0  0  0  0  0  0  0  0  0
    2.8417   -2.1128   -7.9038 H   0  0  0  0  0  0  0  0  0  0  0  0
    3.6816   -2.7775  -10.1027 H   0  0  0  0  0  0  0  0  0  0  0  0
    5.0778   -1.2280  -11.4434 H   0  0  0  0  0  0  0  0  0  0  0  0
    5.6322    1.0218  -10.5503 H   0  0  0  0  0  0  0  0  0  0  0  0
    4.7982    1.7094   -8.3226 H   0  0  0  0  0  0  0  0  0  0  0  0
    2.1714   -2.4668    1.3961 H   0  0  0  0  0  0  0  0  0  0  0  0
    3.5097   -3.0187    3.3856 H   0  0  0  0  0  0  0  0  0  0  0  0
    5.4808   -3.6276    4.5297 H   0  0  0  0  0  0  0  0  0  0  0  0
    6.9645   -3.1550    6.7990 H   0  0  0  0  0  0  0  0  0  0  0  0
    5.8736    0.5289    5.1941 H   0  0  0  0  0  0  0  0  0  0  0  0
    4.3971    1.1990    0.8940 H   0  0  0  0  0  0  0  0  0  0  0  0
  1  2  2  0  0  0  0
  2  3  1  0  0  0  0
  2 18  1  0  0  0  0
  3  4  1  0  0  0  0
  3 30  1  0  0  0  0
  4  5  2  0  0  0  0
  4 17  1  0  0  0  0
  5  6  1  0  0  0  0
  5 31  1  0  0  0  0
  6  7  2  0  0  0  0
  6 32  1  0  0  0  0
  7  8  1  0  0  0  0
  8  9  1  0  0  0  0
  8 17  2  0  0  0  0
  9 10  1  0  0  0  0
  9 33  1  0  0  0  0
  9 34  1  0  0  0  0
 10 11  1  0  0  0  0
 11 12  2  0  0  0  0
 11 16  1  0  0  0  0
 12 13  1  0  0  0  0
 12 35  1  0  0  0  0
 13 14  2  0  0  0  0
 13 36  1  0  0  0  0
 14 15  1  0  0  0  0
 14 37  1  0  0  0  0
 15 16  2  0  0  0  0
 15 38  1  0  0  0  0
 16 39  1  0  0  0  0
 18 19  2  0  0  0  0
 18 29  1  0  0  0  0
 19 20  1  0  0  0  0
 19 40  1  0  0  0  0
 20 21  2  0  0  0  0
 20 41  1  0  0  0  0
 21 22  1  0  0  0  0
 21 27  1  0  0  0  0
 22 23  1  0  0  0  0
 22 26  1  0  0  0  0
 23 24  2  0  0  0  0
 23 42  1  0  0  0  0
 24 25  1  0  0  0  0
 24 43  1  0  0  0  0
 25 26  2  0  0  0  0
 26 44  1  0  0  0  0
 27 28  1  0  0  0  0
 27 29  2  0  0  0  0
 29 45  1  0  0  0  0
M  END
$$$$
