
 OpenBabel01122422383D

 48 51  0  0  0  0  0  0  0  0999 V2000
    0.9951   -0.2999    0.1544 O   0  0  0  0  0  0  0  0  0  0  0  0
    2.2115   -0.1554    0.0690 C   0  0  0  0  0  0  0  0  0  0  0  0
    2.8498    1.2337   -0.0732 C   0  0  0  0  0  0  0  0  0  0  0  0
    2.0873    2.3354    0.5025 N   0  0  0  0  0  0  0  0  0  0  0  0
    1.5412    3.3093   -0.2938 C   0  0  0  0  0  0  0  0  0  0  0  0
    1.0653    4.4355    0.1229 N   0  0  0  0  0  0  0  0  0  0  0  0
    1.0971    4.6575    1.4755 C   0  0  0  0  0  0  0  0  0  0  0  0
    0.6116    5.9605    1.9726 C   0  0  0  0  0  0  0  0  0  0  0  0
    1.4981    7.0338    2.1418 C   0  0  0  0  0  0  0  0  0  0  0  0
    1.0453    8.2550    2.6520 C   0  0  0  0  0  0  0  0  0  0  0  0
   -0.2979    8.4135    2.9905 C   0  0  0  0  0  0  0  0  0  0  0  0
   -1.1908    7.3576    2.8090 C   0  0  0  0  0  0  0  0  0  0  0  0
   -0.7381    6.1344    2.3011 C   0  0  0  0  0  0  0  0  0  0  0  0
    1.5576    3.7727    2.3687 C   0  0  0  0  0  0  0  0  0  0  0  0
    2.1418    2.5173    1.8656 C   0  0  0  0  0  0  0  0  0  0  0  0
    2.7006    1.7449    2.6400 O   0  0  0  0  0  0  0  0  0  0  0  0
    3.1568   -1.1853   -0.0314 N   0  0  0  0  0  0  0  0  0  0  0  0
    2.9264   -2.5501   -0.0214 C   0  0  0  0  0  0  0  0  0  0  0  0
    1.7189   -3.1151    0.0640 C   0  0  0  0  0  0  0  0  0  0  0  0
    1.5422   -4.5836    0.2110 C   0  0  0  0  0  0  0  0  0  0  0  0
    0.3863   -4.9577    0.3902 O   0  0  0  0  0  0  0  0  0  0  0  0
    2.7141   -5.3759    0.1893 N   0  0  0  0  0  0  0  0  0  0  0  0
    2.6171   -6.8095    0.4276 C   0  0  0  0  0  0  0  0  0  0  0  0
    1.4180   -7.5187    0.2458 C   0  0  0  0  0  0  0  0  0  0  0  0
    1.3070   -8.8794    0.5522 C   0  0  0  0  0  0  0  0  0  0  0  0
    2.4075   -9.5782    1.0267 C   0  0  0  0  0  0  0  0  0  0  0  0
    3.6193   -8.9163    1.1848 C   0  0  0  0  0  0  0  0  0  0  0  0
    3.7226   -7.5493    0.8897 C   0  0  0  0  0  0  0  0  0  0  0  0
    3.9445   -4.7561   -0.0118 C   0  0  0  0  0  0  0  0  0  0  0  0
    4.0782   -3.4232   -0.1160 C   0  0  0  0  0  0  0  0  0  0  0  0
    2.9821    1.4056   -1.1471 H   0  0  0  0  0  0  0  0  0  0  0  0
    3.8378    1.2254    0.3980 H   0  0  0  0  0  0  0  0  0  0  0  0
    1.5392    3.0816   -1.3724 H   0  0  0  0  0  0  0  0  0  0  0  0
    2.5463    6.9287    1.8721 H   0  0  0  0  0  0  0  0  0  0  0  0
    1.7378    9.0827    2.7826 H   0  0  0  0  0  0  0  0  0  0  0  0
   -0.6509    9.3609    3.3897 H   0  0  0  0  0  0  0  0  0  0  0  0
   -2.2405    7.4848    3.0586 H   0  0  0  0  0  0  0  0  0  0  0  0
   -1.4438    5.3210    2.1592 H   0  0  0  0  0  0  0  0  0  0  0  0
    1.5821    3.9453    3.4360 H   0  0  0  0  0  0  0  0  0  0  0  0
    4.1320   -0.9091   -0.0190 H   0  0  0  0  0  0  0  0  0  0  0  0
    0.7911   -2.5623    0.1075 H   0  0  0  0  0  0  0  0  0  0  0  0
    0.5265   -7.0449   -0.1537 H   0  0  0  0  0  0  0  0  0  0  0  0
    0.3506   -9.3795    0.4216 H   0  0  0  0  0  0  0  0  0  0  0  0
    2.3175  -10.6317    1.2752 H   0  0  0  0  0  0  0  0  0  0  0  0
    4.4845   -9.4570    1.5599 H   0  0  0  0  0  0  0  0  0  0  0  0
    4.6813   -7.0816    1.0879 H   0  0  0  0  0  0  0  0  0  0  0  0
    4.8212   -5.3853   -0.1234 H   0  0  0  0  0  0  0  0  0  0  0  0
    5.0606   -3.0036   -0.3091 H   0  0  0  0  0  0  0  0  0  0  0  0
  1  2  2  0  0  0  0
  2  3  1  0  0  0  0
  2 17  1  0  0  0  0
  3  4  1  0  0  0  0
  3 31  1  0  0  0  0
  3 32  1  0  0  0  0
  4  5  1  0  0  0  0
  4 15  1  0  0  0  0
  5  6  2  0  0  0  0
  5 33  1  0  0  0  0
  6  7  1  0  0  0  0
  7  8  1  0  0  0  0
  7 14  2  0  0  0  0
  8  9  2  0  0  0  0
  8 13  1  0  0  0  0
  9 10  1  0  0  0  0
  9 34  1  0  0  0  0
 10 11  2  0  0  0  0
 10 35  1  0  0  0  0
 11 12  1  0  0  0  0
 11 36  1  0  0  0  0
 12 13  2  0  0  0  0
 12 37  1  0  0  0  0
 13 38  1  0  0  0  0
 14 15  1  0  0  0  0
 14 39  1  0  0  0  0
 15 16  2  0  0  0  0
 17 18  1  0  0  0  0
 17 40  1  0  0  0  0
 18 19  2  0  0  0  0
 18 30  1  0  0  0  0
 19 20  1  0  0  0  0
 19 41  1  0  0  0  0
 20 21  2  0  0  0  0
 20 22  1  0  0  0  0
 22 23  1  0  0  0  0
 22 29  1  0  0  0  0
 23 24  2  0  0  0  0
 23 28  1  0  0  0  0
 24 25  1  0  0  0  0
 24 42  1  0  0  0  0
 25 26  2  0  0  0  0
 25 43  1  0  0  0  0
 26 27  1  0  0  0  0
 26 44  1  0  0  0  0
 27 28  2  0  0  0  0
 27 45  1  0  0  0  0
 28 46  1  0  0  0  0
 29 30  2  0  0  0  0
 29 47  1  0  0  0  0
 30 48  1  0  0  0  0
M  END
$$$$
