
 OpenBabel01122422383D

 41 44  0  0  0  0  0  0  0  0999 V2000
    3.1692    0.9775   -2.6092 O   0  0  0  0  0  0  0  0  0  0  0  0
    3.1654    0.6058   -1.4379 C   0  0  0  0  0  0  0  0  0  0  0  0
    2.7245   -0.6384   -1.0036 N   0  0  0  0  0  0  0  0  0  0  0  0
    2.2057   -1.5740   -1.9326 C   0  0  0  0  0  0  0  0  0  0  0  0
    1.1102   -1.1755   -2.7319 C   0  0  0  0  0  0  0  0  0  0  0  0
    0.5479    0.0317   -2.5552 F   0  0  0  0  0  0  0  0  0  0  0  0
    0.5232   -2.0304   -3.6510 C   0  0  0  0  0  0  0  0  0  0  0  0
    1.0535   -3.2950   -3.7996 C   0  0  0  0  0  0  0  0  0  0  0  0
    0.5119   -4.1379   -4.6883 F   0  0  0  0  0  0  0  0  0  0  0  0
    2.1363   -3.7173   -3.0287 C   0  0  0  0  0  0  0  0  0  0  0  0
    2.7284   -2.8857   -2.0482 C   0  0  0  0  0  0  0  0  0  0  0  0
    3.8660   -3.4177   -1.2459 C   0  0  0  0  0  0  0  0  0  0  0  0
    4.9799   -2.6344   -0.8930 C   0  0  0  0  0  0  0  0  0  0  0  0
    6.0079   -3.1373   -0.0880 C   0  0  0  0  0  0  0  0  0  0  0  0
    5.9790   -4.4612    0.3344 C   0  0  0  0  0  0  0  0  0  0  0  0
    4.9239   -5.2802   -0.0484 C   0  0  0  0  0  0  0  0  0  0  0  0
    3.8772   -4.7603   -0.8166 C   0  0  0  0  0  0  0  0  0  0  0  0
    3.7518    1.4923   -0.3838 C   0  0  0  0  0  0  0  0  0  0  0  0
    4.1581    2.7736   -0.7506 C   0  0  0  0  0  0  0  0  0  0  0  0
    4.6578    3.6228    0.2307 C   0  0  0  0  0  0  0  0  0  0  0  0
    4.7358    3.1639    1.5404 C   0  0  0  0  0  0  0  0  0  0  0  0
    5.2145    4.0145    2.6272 C   0  0  0  0  0  0  0  0  0  0  0  0
    5.2792    3.5216    3.8683 C   0  0  0  0  0  0  0  0  0  0  0  0
    4.8720    2.1258    4.1617 C   0  0  0  0  0  0  0  0  0  0  0  0
    4.9506    1.6821    5.3029 O   0  0  0  0  0  0  0  0  0  0  0  0
    4.4191    1.3791    3.1141 N   0  0  0  0  0  0  0  0  0  0  0  0
    4.3263    1.8503    1.8080 C   0  0  0  0  0  0  0  0  0  0  0  0
    3.8428    0.9959    0.8799 N   0  0  0  0  0  0  0  0  0  0  0  0
    3.1304   -0.9668   -0.1324 H   0  0  0  0  0  0  0  0  0  0  0  0
   -0.3345   -1.7126   -4.2307 H   0  0  0  0  0  0  0  0  0  0  0  0
    2.5198   -4.7168   -3.2215 H   0  0  0  0  0  0  0  0  0  0  0  0
    5.0768   -1.6114   -1.2481 H   0  0  0  0  0  0  0  0  0  0  0  0
    6.8355   -2.4933    0.1989 H   0  0  0  0  0  0  0  0  0  0  0  0
    6.7817   -4.8566    0.9510 H   0  0  0  0  0  0  0  0  0  0  0  0
    4.9066   -6.3241    0.2541 H   0  0  0  0  0  0  0  0  0  0  0  0
    3.0598   -5.4314   -1.0740 H   0  0  0  0  0  0  0  0  0  0  0  0
    4.0765    3.1103   -1.7810 H   0  0  0  0  0  0  0  0  0  0  0  0
    4.9661    4.6305   -0.0343 H   0  0  0  0  0  0  0  0  0  0  0  0
    5.5123    5.0340    2.4093 H   0  0  0  0  0  0  0  0  0  0  0  0
    5.6242    4.1095    4.7111 H   0  0  0  0  0  0  0  0  0  0  0  0
    4.1288    0.4315    3.2971 H   0  0  0  0  0  0  0  0  0  0  0  0
  1  2  2  0  0  0  0
  2  3  1  0  0  0  0
  2 18  1  0  0  0  0
  3  4  1  0  0  0  0
  3 29  1  0  0  0  0
  4  5  2  0  0  0  0
  4 11  1  0  0  0  0
  5  6  1  0  0  0  0
  5  7  1  0  0  0  0
  7  8  2  0  0  0  0
  7 30  1  0  0  0  0
  8  9  1  0  0  0  0
  8 10  1  0  0  0  0
 10 11  2  0  0  0  0
 10 31  1  0  0  0  0
 11 12  1  0  0  0  0
 12 13  2  0  0  0  0
 12 17  1  0  0  0  0
 13 14  1  0  0  0  0
 13 32  1  0  0  0  0
 14 15  2  0  0  0  0
 14 33  1  0  0  0  0
 15 16  1  0  0  0  0
 15 34  1  0  0  0  0
 16 17  2  0  0  0  0
 16 35  1  0  0  0  0
 17 36  1  0  0  0  0
 18 19  2  0  0  0  0
 18 28  1  0  0  0  0
 19 20  1  0  0  0  0
 19 37  1  0  0  0  0
 20 21  2  0  0  0  0
 20 38  1  0  0  0  0
 21 22  1  0  0  0  0
 21 27  1  0  0  0  0
 22 23  2  0  0  0  0
 22 39  1  0  0  0  0
 23 24  1  0  0  0  0
 23 40  1  0  0  0  0
 24 25  2  0  0  0  0
 24 26  1  0  0  0  0
 26 27  1  0  0  0  0
 26 41  1  0  0  0  0
 27 28  2  0  0  0  0
M  END
$$$$
