
 OpenBabel01122422383D

 45 48  0  0  0  0  0  0  0  0999 V2000
    2.7456    1.2039    1.7342 O   0  0  0  0  0  0  0  0  0  0  0  0
    2.1845    0.2073    1.2954 C   0  0  0  0  0  0  0  0  0  0  0  0
    0.6723    0.0381    1.2372 C   0  0  0  0  0  0  0  0  0  0  0  0
    0.1292   -0.4070    2.5124 N   0  0  0  0  0  0  0  0  0  0  0  0
   -0.0150   -1.7760    2.6960 C   0  0  0  0  0  0  0  0  0  0  0  0
    0.2623   -2.6445    1.8782 O   0  0  0  0  0  0  0  0  0  0  0  0
   -0.5749   -2.2236    4.0177 C   0  0  0  0  0  0  0  0  0  0  0  0
   -0.9119   -1.4230    4.9754 N   0  0  0  0  0  0  0  0  0  0  0  0
   -0.7367   -0.0446    4.7630 C   0  0  0  0  0  0  0  0  0  0  0  0
   -1.1013    0.8103    5.8085 C   0  0  0  0  0  0  0  0  0  0  0  0
   -0.9560    2.1897    5.6852 C   0  0  0  0  0  0  0  0  0  0  0  0
   -0.4398    2.7236    4.5091 C   0  0  0  0  0  0  0  0  0  0  0  0
   -0.0696    1.8816    3.4544 C   0  0  0  0  0  0  0  0  0  0  0  0
   -0.2176    0.4914    3.5642 C   0  0  0  0  0  0  0  0  0  0  0  0
    2.8125   -0.9143    0.8577 O   0  0  0  0  0  0  0  0  0  0  0  0
    4.2497   -0.9191    0.9142 C   0  0  0  0  0  0  0  0  0  0  0  0
    4.7568   -1.9332    1.8746 C   0  0  0  0  0  0  0  0  0  0  0  0
    5.0181   -1.8062    3.2192 C   0  0  0  0  0  0  0  0  0  0  0  0
    5.4703   -3.0041    3.6840 O   0  0  0  0  0  0  0  0  0  0  0  0
    5.4613   -3.8204    2.5820 C   0  0  0  0  0  0  0  0  0  0  0  0
    5.8689   -5.2109    2.7784 C   0  0  0  0  0  0  0  0  0  0  0  0
    5.8798   -6.0887    1.6814 C   0  0  0  0  0  0  0  0  0  0  0  0
    6.2177   -7.4453    1.8316 C   0  0  0  0  0  0  0  0  0  0  0  0
    6.1936   -8.3896    0.6551 C   0  0  0  0  0  0  0  0  0  0  0  0
    5.8194   -7.8012   -0.5147 F   0  0  0  0  0  0  0  0  0  0  0  0
    7.4099   -8.9541    0.4155 F   0  0  0  0  0  0  0  0  0  0  0  0
    5.3320   -9.4283    0.8416 F   0  0  0  0  0  0  0  0  0  0  0  0
    6.5659   -7.9182    3.1051 C   0  0  0  0  0  0  0  0  0  0  0  0
    6.5753   -7.0564    4.2006 C   0  0  0  0  0  0  0  0  0  0  0  0
    6.2284   -5.7118    4.0375 C   0  0  0  0  0  0  0  0  0  0  0  0
    5.0615   -3.2211    1.4762 N   0  0  0  0  0  0  0  0  0  0  0  0
    0.4290   -0.6822    0.4463 H   0  0  0  0  0  0  0  0  0  0  0  0
    0.2115    0.9771    0.9135 H   0  0  0  0  0  0  0  0  0  0  0  0
   -0.6879   -3.3132    4.1272 H   0  0  0  0  0  0  0  0  0  0  0  0
   -1.5013    0.3885    6.7278 H   0  0  0  0  0  0  0  0  0  0  0  0
   -1.2406    2.8424    6.5067 H   0  0  0  0  0  0  0  0  0  0  0  0
   -0.3198    3.8003    4.4112 H   0  0  0  0  0  0  0  0  0  0  0  0
    0.3400    2.3513    2.5659 H   0  0  0  0  0  0  0  0  0  0  0  0
    4.6680    0.0652    1.1524 H   0  0  0  0  0  0  0  0  0  0  0  0
    4.6008   -1.1697   -0.0933 H   0  0  0  0  0  0  0  0  0  0  0  0
    4.9421   -1.0054    3.9403 H   0  0  0  0  0  0  0  0  0  0  0  0
    5.6065   -5.7090    0.6956 H   0  0  0  0  0  0  0  0  0  0  0  0
    6.8262   -8.9673    3.2462 H   0  0  0  0  0  0  0  0  0  0  0  0
    6.8438   -7.4313    5.1857 H   0  0  0  0  0  0  0  0  0  0  0  0
    6.2317   -5.0613    4.9103 H   0  0  0  0  0  0  0  0  0  0  0  0
  1  2  2  0  0  0  0
  2  3  1  0  0  0  0
  2 15  1  0  0  0  0
  3  4  1  0  0  0  0
  3 32  1  0  0  0  0
  3 33  1  0  0  0  0
  4  5  1  0  0  0  0
  4 14  1  0  0  0  0
  5  6  2  0  0  0  0
  5  7  1  0  0  0  0
  7  8  2  0  0  0  0
  7 34  1  0  0  0  0
  8  9  1  0  0  0  0
  9 10  2  0  0  0  0
  9 14  1  0  0  0  0
 10 11  1  0  0  0  0
 10 35  1  0  0  0  0
 11 12  2  0  0  0  0
 11 36  1  0  0  0  0
 12 13  1  0  0  0  0
 12 37  1  0  0  0  0
 13 14  2  0  0  0  0
 13 38  1  0  0  0  0
 15 16  1  0  0  0  0
 16 17  1  0  0  0  0
 16 39  1  0  0  0  0
 16 40  1  0  0  0  0
 17 18  2  0  0  0  0
 17 31  1  0  0  0  0
 18 19  1  0  0  0  0
 18 41  1  0  0  0  0
 19 20  1  0  0  0  0
 20 21  1  0  0  0  0
 20 31  2  0  0  0  0
 21 22  2  0  0  0  0
 21 30  1  0  0  0  0
 22 23  1  0  0  0  0
 22 42  1  0  0  0  0
 23 24  1  0  0  0  0
 23 28  2  0  0  0  0
 24 25  1  0  0  0  0
 24 26  1  0  0  0  0
 24 27  1  0  0  0  0
 28 29  1  0  0  0  0
 28 43  1  0  0  0  0
 29 30  2  0  0  0  0
 29 44  1  0  0  0  0
 30 45  1  0  0  0  0
M  END
$$$$
