
 OpenBabel01122422383D

 49 52  0  0  0  0  0  0  0  0999 V2000
    2.1534    0.2117   -1.2408 O   0  0  0  0  0  0  0  0  0  0  0  0
    2.4481   -0.1377   -0.1027 C   0  0  0  0  0  0  0  0  0  0  0  0
    2.1664   -1.3633    0.4773 N   0  0  0  0  0  0  0  0  0  0  0  0
    1.4728   -2.4198   -0.1641 C   0  0  0  0  0  0  0  0  0  0  0  0
    1.2661   -2.4894   -1.5412 C   0  0  0  0  0  0  0  0  0  0  0  0
    0.5043   -3.5225   -2.0852 C   0  0  0  0  0  0  0  0  0  0  0  0
   -0.0183   -4.4749   -1.2298 C   0  0  0  0  0  0  0  0  0  0  0  0
    0.1908   -4.4746    0.1040 N   0  0  0  0  0  0  0  0  0  0  0  0
    0.9338   -3.4533    0.6007 C   0  0  0  0  0  0  0  0  0  0  0  0
    3.1059    0.8711    0.7683 C   0  0  0  0  0  0  0  0  0  0  0  0
    2.7190    2.2074    0.6108 C   0  0  0  0  0  0  0  0  0  0  0  0
    3.3654    3.2194    1.3228 C   0  0  0  0  0  0  0  0  0  0  0  0
    4.4219    2.9098    2.1879 C   0  0  0  0  0  0  0  0  0  0  0  0
    5.1674    4.0134    2.8925 C   0  0  0  0  0  0  0  0  0  0  0  0
    4.5650    4.3518    4.1554 N   0  0  0  0  0  0  0  0  0  0  0  0
    5.1478    5.2863    4.9806 C   0  0  0  0  0  0  0  0  0  0  0  0
    6.1994    5.8516    4.6897 O   0  0  0  0  0  0  0  0  0  0  0  0
    4.4395    5.5602    6.2089 C   0  0  0  0  0  0  0  0  0  0  0  0
    3.3020    5.0102    6.7766 C   0  0  0  0  0  0  0  0  0  0  0  0
    3.0621    5.6487    8.0286 C   0  0  0  0  0  0  0  0  0  0  0  0
    2.0199    5.3710    9.0067 C   0  0  0  0  0  0  0  0  0  0  0  0
    1.5276    6.3579    9.8558 C   0  0  0  0  0  0  0  0  0  0  0  0
    0.5483    6.0149   10.7850 C   0  0  0  0  0  0  0  0  0  0  0  0
    0.0955    4.7027   10.8425 C   0  0  0  0  0  0  0  0  0  0  0  0
    0.6323    3.7864    9.9536 C   0  0  0  0  0  0  0  0  0  0  0  0
    1.5724    4.0912    9.0324 N   0  0  0  0  0  0  0  0  0  0  0  0
    4.0726    6.5756    8.1932 C   0  0  0  0  0  0  0  0  0  0  0  0
    4.8916    6.5135    7.0971 N   0  0  0  0  0  0  0  0  0  0  0  0
    4.7832    1.5643    2.3680 C   0  0  0  0  0  0  0  0  0  0  0  0
    4.1336    0.5449    1.6579 C   0  0  0  0  0  0  0  0  0  0  0  0
    2.3053   -1.4507    1.4765 H   0  0  0  0  0  0  0  0  0  0  0  0
    1.6859   -1.7554   -2.2214 H   0  0  0  0  0  0  0  0  0  0  0  0
    0.3214   -3.5697   -3.1530 H   0  0  0  0  0  0  0  0  0  0  0  0
   -0.6370   -5.2840   -1.6073 H   0  0  0  0  0  0  0  0  0  0  0  0
    1.0580   -3.4857    1.6785 H   0  0  0  0  0  0  0  0  0  0  0  0
    1.9289    2.4671   -0.0912 H   0  0  0  0  0  0  0  0  0  0  0  0
    3.0586    4.2528    1.1704 H   0  0  0  0  0  0  0  0  0  0  0  0
    5.1933    4.9147    2.2678 H   0  0  0  0  0  0  0  0  0  0  0  0
    6.2107    3.7233    3.0644 H   0  0  0  0  0  0  0  0  0  0  0  0
    3.6470    3.9953    4.3758 H   0  0  0  0  0  0  0  0  0  0  0  0
    2.6952    4.2149    6.3643 H   0  0  0  0  0  0  0  0  0  0  0  0
    1.8855    7.3796    9.7971 H   0  0  0  0  0  0  0  0  0  0  0  0
    0.1456    6.7660   11.4583 H   0  0  0  0  0  0  0  0  0  0  0  0
   -0.6582    4.4010   11.5612 H   0  0  0  0  0  0  0  0  0  0  0  0
    0.3128    2.7482    9.9612 H   0  0  0  0  0  0  0  0  0  0  0  0
    4.3017    7.2535    9.0047 H   0  0  0  0  0  0  0  0  0  0  0  0
    5.7313    7.0613    6.9491 H   0  0  0  0  0  0  0  0  0  0  0  0
    5.6026    1.3076    3.0382 H   0  0  0  0  0  0  0  0  0  0  0  0
    4.4777   -0.4800    1.7679 H   0  0  0  0  0  0  0  0  0  0  0  0
  1  2  2  0  0  0  0
  2  3  1  0  0  0  0
  2 10  1  0  0  0  0
  3  4  1  0  0  0  0
  3 31  1  0  0  0  0
  4  5  2  0  0  0  0
  4  9  1  0  0  0  0
  5  6  1  0  0  0  0
  5 32  1  0  0  0  0
  6  7  2  0  0  0  0
  6 33  1  0  0  0  0
  7  8  1  0  0  0  0
  7 34  1  0  0  0  0
  8  9  2  0  0  0  0
  9 35  1  0  0  0  0
 10 11  2  0  0  0  0
 10 30  1  0  0  0  0
 11 12  1  0  0  0  0
 11 36  1  0  0  0  0
 12 13  2  0  0  0  0
 12 37  1  0  0  0  0
 13 14  1  0  0  0  0
 13 29  1  0  0  0  0
 14 15  1  0  0  0  0
 14 38  1  0  0  0  0
 14 39  1  0  0  0  0
 15 16  1  0  0  0  0
 15 40  1  0  0  0  0
 16 17  2  0  0  0  0
 16 18  1  0  0  0  0
 18 19  2  0  0  0  0
 18 28  1  0  0  0  0
 19 20  1  0  0  0  0
 19 41  1  0  0  0  0
 20 21  1  0  0  0  0
 20 27  2  0  0  0  0
 21 22  2  0  0  0  0
 21 26  1  0  0  0  0
 22 23  1  0  0  0  0
 22 42  1  0  0  0  0
 23 24  2  0  0  0  0
 23 43  1  0  0  0  0
 24 25  1  0  0  0  0
 24 44  1  0  0  0  0
 25 26  2  0  0  0  0
 25 45  1  0  0  0  0
 27 28  1  0  0  0  0
 27 46  1  0  0  0  0
 28 47  1  0  0  0  0
 29 30  2  0  0  0  0
 29 48  1  0  0  0  0
 30 49  1  0  0  0  0
M  END
$$$$
