
 OpenBabel01122422383D

 57 59  0  0  1  0  0  0  0  0999 V2000
    3.5553    0.1130   -2.1632 C   0  0  0  0  0  0  0  0  0  0  0  0
    2.5512    1.2489   -2.3087 C   0  0  3  0  0  0  0  0  0  0  0  0
    2.9891    2.4064   -1.5379 N   0  0  0  0  0  0  0  0  0  0  0  0
    2.5681    2.6043   -0.2484 C   0  0  0  0  0  0  0  0  0  0  0  0
    1.7754    1.8622    0.3225 O   0  0  0  0  0  0  0  0  0  0  0  0
    3.1866    3.7852    0.4555 C   0  0  0  0  0  0  0  0  0  0  0  0
    2.7859    5.1139   -0.1610 C   0  0  0  0  0  0  0  0  0  0  0  0
    3.3485    6.3548    0.5169 C   0  0  0  0  0  0  0  0  0  0  0  0
    3.1078    7.4702    0.0589 O   0  0  0  0  0  0  0  0  0  0  0  0
    4.1255    6.1743    1.6330 N   0  0  0  0  0  0  0  0  0  0  0  0
    4.7371    7.2866    2.3495 C   0  0  0  0  0  0  0  0  0  0  0  0
    3.9089    7.7739    3.5150 C   0  0  0  0  0  0  0  0  0  0  0  0
    2.6788    8.3812    3.2923 C   0  0  0  0  0  0  0  0  0  0  0  0
    1.8924    8.7353    4.3874 C   0  0  0  0  0  0  0  0  0  0  0  0
    0.6152    9.2442    4.2852 O   0  0  0  0  0  0  0  0  0  0  0  0
   -0.1851    8.8225    3.2439 C   0  0  0  0  0  0  0  0  0  0  0  0
   -0.1769    7.5157    2.7359 C   0  0  0  0  0  0  0  0  0  0  0  0
   -0.9433    7.1915    1.6158 C   0  0  0  0  0  0  0  0  0  0  0  0
   -1.7743    8.1535    1.0470 C   0  0  0  0  0  0  0  0  0  0  0  0
   -1.8436    9.4225    1.6137 C   0  0  0  0  0  0  0  0  0  0  0  0
   -2.6747   10.3315    1.0867 F   0  0  0  0  0  0  0  0  0  0  0  0
   -1.0581    9.7673    2.7080 C   0  0  0  0  0  0  0  0  0  0  0  0
    2.4102    8.6059    5.6685 C   0  0  0  0  0  0  0  0  0  0  0  0
    3.6619    8.0342    5.8040 C   0  0  0  0  0  0  0  0  0  0  0  0
    4.4047    7.5873    4.7648 N   0  0  0  0  0  0  0  0  0  0  0  0
    2.4190    1.6513   -3.7789 C   0  0  0  0  0  0  0  0  0  0  0  0
    3.1362    2.5313   -4.2646 O   0  0  0  0  0  0  0  0  0  0  0  0
    1.4158    0.9454   -4.6413 C   0  0  0  0  0  0  0  0  0  0  0  0
    0.6254   -0.1112   -4.1758 C   0  0  0  0  0  0  0  0  0  0  0  0
   -0.3112   -0.7193   -5.0221 C   0  0  0  0  0  0  0  0  0  0  0  0
   -0.4535   -0.2867   -6.3378 C   0  0  0  0  0  0  0  0  0  0  0  0
    0.3360    0.7565   -6.8144 C   0  0  0  0  0  0  0  0  0  0  0  0
    1.2685    1.3695   -5.9710 C   0  0  0  0  0  0  0  0  0  0  0  0
    3.6541   -0.1885   -1.1156 H   0  0  0  0  0  0  0  0  0  0  0  0
    4.5487    0.4173   -2.5149 H   0  0  0  0  0  0  0  0  0  0  0  0
    3.2553   -0.7638   -2.7452 H   0  0  0  0  0  0  0  0  0  0  0  0
    1.5748    0.9520   -1.9167 H   0  0  0  0  0  0  0  0  0  0  0  0
    3.6659    3.0225   -1.9790 H   0  0  0  0  0  0  0  0  0  0  0  0
    4.2753    3.6573    0.4492 H   0  0  0  0  0  0  0  0  0  0  0  0
    2.8584    3.7435    1.5015 H   0  0  0  0  0  0  0  0  0  0  0  0
    1.6925    5.2051   -0.1619 H   0  0  0  0  0  0  0  0  0  0  0  0
    3.1120    5.1532   -1.2078 H   0  0  0  0  0  0  0  0  0  0  0  0
    4.2385    5.2671    2.0588 H   0  0  0  0  0  0  0  0  0  0  0  0
    4.9372    8.1150    1.6621 H   0  0  0  0  0  0  0  0  0  0  0  0
    5.6993    6.9133    2.7174 H   0  0  0  0  0  0  0  0  0  0  0  0
    2.3319    8.5397    2.2762 H   0  0  0  0  0  0  0  0  0  0  0  0
    0.4508    6.7487    3.1824 H   0  0  0  0  0  0  0  0  0  0  0  0
   -0.8831    6.1952    1.1859 H   0  0  0  0  0  0  0  0  0  0  0  0
   -2.3711    7.9217    0.1709 H   0  0  0  0  0  0  0  0  0  0  0  0
   -1.1196   10.7687    3.1200 H   0  0  0  0  0  0  0  0  0  0  0  0
    1.8499    8.9320    6.5370 H   0  0  0  0  0  0  0  0  0  0  0  0
    4.1143    7.9088    6.7841 H   0  0  0  0  0  0  0  0  0  0  0  0
    0.6978   -0.4934   -3.1646 H   0  0  0  0  0  0  0  0  0  0  0  0
   -0.9235   -1.5371   -4.6500 H   0  0  0  0  0  0  0  0  0  0  0  0
   -1.1830   -0.7623   -6.9893 H   0  0  0  0  0  0  0  0  0  0  0  0
    0.2240    1.0972   -7.8397 H   0  0  0  0  0  0  0  0  0  0  0  0
    1.8743    2.1866   -6.3614 H   0  0  0  0  0  0  0  0  0  0  0  0
  1  2  1  0  0  0  0
  1 34  1  0  0  0  0
  1 35  1  0  0  0  0
  1 36  1  0  0  0  0
  2  3  1  0  0  0  0
  2 26  1  0  0  0  0
  2 37  1  0  0  0  0
  3  4  1  0  0  0  0
  3 38  1  0  0  0  0
  4  5  2  0  0  0  0
  4  6  1  0  0  0  0
  6  7  1  0  0  0  0
  6 39  1  0  0  0  0
  6 40  1  0  0  0  0
  7  8  1  0  0  0  0
  7 41  1  0  0  0  0
  7 42  1  0  0  0  0
  8  9  2  0  0  0  0
  8 10  1  0  0  0  0
 10 11  1  0  0  0  0
 10 43  1  0  0  0  0
 11 12  1  0  0  0  0
 11 44  1  0  0  0  0
 11 45  1  0  0  0  0
 12 13  2  0  0  0  0
 12 25  1  0  0  0  0
 13 14  1  0  0  0  0
 13 46  1  0  0  0  0
 14 15  1  0  0  0  0
 14 23  2  0  0  0  0
 15 16  1  0  0  0  0
 16 17  2  0  0  0  0
 16 22  1  0  0  0  0
 17 18  1  0  0  0  0
 17 47  1  0  0  0  0
 18 19  2  0  0  0  0
 18 48  1  0  0  0  0
 19 20  1  0  0  0  0
 19 49  1  0  0  0  0
 20 21  1  0  0  0  0
 20 22  2  0  0  0  0
 22 50  1  0  0  0  0
 23 24  1  0  0  0  0
 23 51  1  0  0  0  0
 24 25  2  0  0  0  0
 24 52  1  0  0  0  0
 26 27  2  0  0  0  0
 26 28  1  0  0  0  0
 28 29  2  0  0  0  0
 28 33  1  0  0  0  0
 29 30  1  0  0  0  0
 29 53  1  0  0  0  0
 30 31  2  0  0  0  0
 30 54  1  0  0  0  0
 31 32  1  0  0  0  0
 31 55  1  0  0  0  0
 32 33  2  0  0  0  0
 32 56  1  0  0  0  0
 33 57  1  0  0  0  0
M  END
$$$$
