
 OpenBabel01122422383D

 53 56  0  0  0  0  0  0  0  0999 V2000
    2.6508    2.5368    0.6374 C   0  0  0  0  0  0  0  0  0  0  0  0
    2.7848    2.2243    2.0191 O   0  0  0  0  0  0  0  0  0  0  0  0
    3.4787    0.9861    2.2367 C   0  0  0  0  0  0  0  0  0  0  0  0
    4.9020    0.9775    1.7210 C   0  0  0  0  0  0  0  0  0  0  0  0
    5.1810    0.1472    0.7071 N   0  0  0  0  0  0  0  0  0  0  0  0
    6.4475    0.1840    0.2401 C   0  0  0  0  0  0  0  0  0  0  0  0
    7.4536    1.0111    0.7224 C   0  0  0  0  0  0  0  0  0  0  0  0
    8.7821    0.9830    0.2163 N   0  0  0  0  0  0  0  0  0  0  0  0
    9.3272   -0.0784   -0.4839 C   0  0  0  0  0  0  0  0  0  0  0  0
    8.6997   -1.1182   -0.6987 O   0  0  0  0  0  0  0  0  0  0  0  0
   10.7751    0.0251   -0.8800 C   0  0  0  0  0  0  0  0  0  0  0  0
   11.3081   -0.7729   -1.8425 C   0  0  0  0  0  0  0  0  0  0  0  0
   10.4696   -1.6777   -2.6627 C   0  0  0  0  0  0  0  0  0  0  0  0
    9.8569   -1.1968   -3.8330 C   0  0  0  0  0  0  0  0  0  0  0  0
    9.1745   -2.0716   -4.6818 C   0  0  0  0  0  0  0  0  0  0  0  0
    9.0430   -3.4149   -4.3355 C   0  0  0  0  0  0  0  0  0  0  0  0
    9.5853   -3.8847   -3.1398 C   0  0  0  0  0  0  0  0  0  0  0  0
   10.3071   -3.0235   -2.3101 C   0  0  0  0  0  0  0  0  0  0  0  0
   12.8158   -0.7302   -2.0015 C   0  0  0  0  0  0  0  0  0  0  0  0
   13.5248   -1.6506   -2.9683 C   0  0  0  0  0  0  0  0  0  0  0  0
   13.0383   -1.9754   -4.2381 C   0  0  0  0  0  0  0  0  0  0  0  0
   13.7045   -2.8872   -5.0609 C   0  0  0  0  0  0  0  0  0  0  0  0
   14.9230   -3.4210   -4.6618 C   0  0  0  0  0  0  0  0  0  0  0  0
   15.4737   -3.0402   -3.4408 C   0  0  0  0  0  0  0  0  0  0  0  0
   14.7758   -2.1701   -2.5953 C   0  0  0  0  0  0  0  0  0  0  0  0
   13.5856    0.0399   -1.2862 N   0  0  0  0  0  0  0  0  0  0  0  0
   13.0032    0.8626   -0.3894 N   0  0  0  0  0  0  0  0  0  0  0  0
   11.6629    0.9754   -0.1637 C   0  0  0  0  0  0  0  0  0  0  0  0
   11.2128    1.8260    0.6026 O   0  0  0  0  0  0  0  0  0  0  0  0
    7.0494    1.8611    1.7469 C   0  0  0  0  0  0  0  0  0  0  0  0
    7.9346    2.8894    2.3877 C   0  0  0  0  0  0  0  0  0  0  0  0
    5.7866    1.8470    2.2493 N   0  0  0  0  0  0  0  0  0  0  0  0
    2.0499    3.4457    0.5536 H   0  0  0  0  0  0  0  0  0  0  0  0
    2.1417    1.7289    0.1035 H   0  0  0  0  0  0  0  0  0  0  0  0
    3.6254    2.7366    0.1820 H   0  0  0  0  0  0  0  0  0  0  0  0
    2.9025    0.1672    1.7877 H   0  0  0  0  0  0  0  0  0  0  0  0
    3.5027    0.8060    3.3167 H   0  0  0  0  0  0  0  0  0  0  0  0
    6.5998   -0.4945   -0.5926 H   0  0  0  0  0  0  0  0  0  0  0  0
    9.4309    1.7032    0.5379 H   0  0  0  0  0  0  0  0  0  0  0  0
    9.9639   -0.1546   -4.1273 H   0  0  0  0  0  0  0  0  0  0  0  0
    8.7596   -1.7098   -5.6190 H   0  0  0  0  0  0  0  0  0  0  0  0
    8.5105   -4.0968   -4.9940 H   0  0  0  0  0  0  0  0  0  0  0  0
    9.4500   -4.9244   -2.8536 H   0  0  0  0  0  0  0  0  0  0  0  0
   10.7223   -3.4059   -1.3806 H   0  0  0  0  0  0  0  0  0  0  0  0
   12.1436   -1.5237   -4.6381 H   0  0  0  0  0  0  0  0  0  0  0  0
   13.2697   -3.1649   -6.0179 H   0  0  0  0  0  0  0  0  0  0  0  0
   15.4500   -4.1148   -5.3110 H   0  0  0  0  0  0  0  0  0  0  0  0
   16.4471   -3.4217   -3.1448 H   0  0  0  0  0  0  0  0  0  0  0  0
   15.2239   -1.8953   -1.6425 H   0  0  0  0  0  0  0  0  0  0  0  0
   13.6234    1.4848    0.1236 H   0  0  0  0  0  0  0  0  0  0  0  0
    8.9938    2.6369    2.3336 H   0  0  0  0  0  0  0  0  0  0  0  0
    7.6840    2.9806    3.4505 H   0  0  0  0  0  0  0  0  0  0  0  0
    7.7690    3.8634    1.9152 H   0  0  0  0  0  0  0  0  0  0  0  0
  1  2  1  0  0  0  0
  1 33  1  0  0  0  0
  1 34  1  0  0  0  0
  1 35  1  0  0  0  0
  2  3  1  0  0  0  0
  3  4  1  0  0  0  0
  3 36  1  0  0  0  0
  3 37  1  0  0  0  0
  4  5  2  0  0  0  0
  4 32  1  0  0  0  0
  5  6  1  0  0  0  0
  6  7  2  0  0  0  0
  6 38  1  0  0  0  0
  7  8  1  0  0  0  0
  7 30  1  0  0  0  0
  8  9  1  0  0  0  0
  8 39  1  0  0  0  0
  9 10  2  0  0  0  0
  9 11  1  0  0  0  0
 11 12  2  0  0  0  0
 11 28  1  0  0  0  0
 12 13  1  0  0  0  0
 12 19  1  0  0  0  0
 13 14  2  0  0  0  0
 13 18  1  0  0  0  0
 14 15  1  0  0  0  0
 14 40  1  0  0  0  0
 15 16  2  0  0  0  0
 15 41  1  0  0  0  0
 16 17  1  0  0  0  0
 16 42  1  0  0  0  0
 17 18  2  0  0  0  0
 17 43  1  0  0  0  0
 18 44  1  0  0  0  0
 19 20  1  0  0  0  0
 19 26  2  0  0  0  0
 20 21  2  0  0  0  0
 20 25  1  0  0  0  0
 21 22  1  0  0  0  0
 21 45  1  0  0  0  0
 22 23  2  0  0  0  0
 22 46  1  0  0  0  0
 23 24  1  0  0  0  0
 23 47  1  0  0  0  0
 24 25  2  0  0  0  0
 24 48  1  0  0  0  0
 25 49  1  0  0  0  0
 26 27  1  0  0  0  0
 27 28  1  0  0  0  0
 27 50  1  0  0  0  0
 28 29  2  0  0  0  0
 30 31  1  0  0  0  0
 30 32  2  0  0  0  0
 31 51  1  0  0  0  0
 31 52  1  0  0  0  0
 31 53  1  0  0  0  0
M  END
$$$$
