
 OpenBabel01122422383D

 46 49  0  0  0  0  0  0  0  0999 V2000
    1.2757    0.3649    0.9104 O   0  0  0  0  0  0  0  0  0  0  0  0
    2.3536    0.1400    0.3544 C   0  0  0  0  0  0  0  0  0  0  0  0
    2.9971   -1.1864    0.6237 C   0  0  0  0  0  0  0  0  0  0  0  0
    3.6730   -1.7462   -0.4021 N   0  0  0  0  0  0  0  0  0  0  0  0
    4.3511   -2.8679   -0.1271 C   0  0  0  0  0  0  0  0  0  0  0  0
    5.2403   -3.3782   -1.1880 C   0  0  0  0  0  0  0  0  0  0  0  0
    5.3483   -2.7019   -2.4241 C   0  0  0  0  0  0  0  0  0  0  0  0
    6.1937   -3.1574   -3.4369 C   0  0  0  0  0  0  0  0  0  0  0  0
    6.9479   -4.3008   -3.2278 C   0  0  0  0  0  0  0  0  0  0  0  0
    7.7582   -4.7426   -4.1978 F   0  0  0  0  0  0  0  0  0  0  0  0
    6.8757   -4.9918   -2.0245 C   0  0  0  0  0  0  0  0  0  0  0  0
    6.0283   -4.5312   -1.0110 C   0  0  0  0  0  0  0  0  0  0  0  0
    4.3173   -3.5046    1.0583 N   0  0  0  0  0  0  0  0  0  0  0  0
    3.5580   -2.9479    2.0257 C   0  0  0  0  0  0  0  0  0  0  0  0
    2.8717   -1.7692    1.8628 C   0  0  0  0  0  0  0  0  0  0  0  0
    2.9558    1.0273   -0.5599 N   0  0  0  0  0  0  0  0  0  0  0  0
    2.1959    2.2103   -0.9636 C   0  0  0  0  0  0  0  0  0  0  0  0
    1.7332    2.2781   -2.4057 C   0  0  0  0  0  0  0  0  0  0  0  0
    1.4138    1.1396   -3.1578 C   0  0  0  0  0  0  0  0  0  0  0  0
    0.8374    1.2697   -4.4263 C   0  0  0  0  0  0  0  0  0  0  0  0
    0.5723    2.5323   -4.9538 C   0  0  0  0  0  0  0  0  0  0  0  0
    0.9155    3.6718   -4.2323 C   0  0  0  0  0  0  0  0  0  0  0  0
    1.4934    3.5447   -2.9690 C   0  0  0  0  0  0  0  0  0  0  0  0
    4.3723    1.0495   -0.7551 C   0  0  0  0  0  0  0  0  0  0  0  0
    5.1576    0.5908    0.2445 N   0  0  0  0  0  0  0  0  0  0  0  0
    6.4798    0.5523    0.0208 C   0  0  0  0  0  0  0  0  0  0  0  0
    7.0989    0.9489   -1.0937 N   0  0  0  0  0  0  0  0  0  0  0  0
    6.2780    1.4245   -2.0298 C   0  0  0  0  0  0  0  0  0  0  0  0
    6.9034    1.7935   -3.1771 O   0  0  0  0  0  0  0  0  0  0  0  0
    4.9159    1.5252   -1.9283 C   0  0  0  0  0  0  0  0  0  0  0  0
    4.7672   -1.7983   -2.6041 H   0  0  0  0  0  0  0  0  0  0  0  0
    6.2630   -2.6230   -4.3788 H   0  0  0  0  0  0  0  0  0  0  0  0
    7.4775   -5.8825   -1.8787 H   0  0  0  0  0  0  0  0  0  0  0  0
    5.9882   -5.0809   -0.0716 H   0  0  0  0  0  0  0  0  0  0  0  0
    3.5326   -3.4859    2.9650 H   0  0  0  0  0  0  0  0  0  0  0  0
    2.2940   -1.3232    2.6602 H   0  0  0  0  0  0  0  0  0  0  0  0
    2.8014    3.0934   -0.7200 H   0  0  0  0  0  0  0  0  0  0  0  0
    1.2878    2.2943   -0.3552 H   0  0  0  0  0  0  0  0  0  0  0  0
    1.5858    0.1427   -2.7585 H   0  0  0  0  0  0  0  0  0  0  0  0
    0.5702    0.3816   -4.9938 H   0  0  0  0  0  0  0  0  0  0  0  0
    0.0869    2.6291   -5.9223 H   0  0  0  0  0  0  0  0  0  0  0  0
    0.7104    4.6581   -4.6409 H   0  0  0  0  0  0  0  0  0  0  0  0
    1.7296    4.4482   -2.4094 H   0  0  0  0  0  0  0  0  0  0  0  0
    7.0994    0.1557    0.8178 H   0  0  0  0  0  0  0  0  0  0  0  0
    7.8236    1.5536   -2.9648 H   0  0  0  0  0  0  0  0  0  0  0  0
    4.3380    1.8921   -2.7620 H   0  0  0  0  0  0  0  0  0  0  0  0
  1  2  2  0  0  0  0
  2  3  1  0  0  0  0
  2 16  1  0  0  0  0
  3  4  2  0  0  0  0
  3 15  1  0  0  0  0
  4  5  1  0  0  0  0
  5  6  1  0  0  0  0
  5 13  2  0  0  0  0
  6  7  2  0  0  0  0
  6 12  1  0  0  0  0
  7  8  1  0  0  0  0
  7 31  1  0  0  0  0
  8  9  2  0  0  0  0
  8 32  1  0  0  0  0
  9 10  1  0  0  0  0
  9 11  1  0  0  0  0
 11 12  2  0  0  0  0
 11 33  1  0  0  0  0
 12 34  1  0  0  0  0
 13 14  1  0  0  0  0
 14 15  2  0  0  0  0
 14 35  1  0  0  0  0
 15 36  1  0  0  0  0
 16 17  1  0  0  0  0
 16 24  1  0  0  0  0
 17 18  1  0  0  0  0
 17 37  1  0  0  0  0
 17 38  1  0  0  0  0
 18 19  2  0  0  0  0
 18 23  1  0  0  0  0
 19 20  1  0  0  0  0
 19 39  1  0  0  0  0
 20 21  2  0  0  0  0
 20 40  1  0  0  0  0
 21 22  1  0  0  0  0
 21 41  1  0  0  0  0
 22 23  2  0  0  0  0
 22 42  1  0  0  0  0
 23 43  1  0  0  0  0
 24 25  2  0  0  0  0
 24 30  1  0  0  0  0
 25 26  1  0  0  0  0
 26 27  2  0  0  0  0
 26 44  1  0  0  0  0
 27 28  1  0  0  0  0
 28 29  1  0  0  0  0
 28 30  2  0  0  0  0
 29 45  1  0  0  0  0
 30 46  1  0  0  0  0
M  END
$$$$
