
 OpenBabel01122422383D

 45 48  0  0  1  0  0  0  0  0999 V2000
    1.0391   -1.0616   -0.3388 O   0  0  0  0  0  0  0  0  0  0  0  0
    2.1434   -0.5717   -0.1295 C   0  0  0  0  0  0  0  0  0  0  0  0
    2.6719   -0.2033    1.0953 N   0  0  0  0  0  0  0  0  0  0  0  0
    2.0952   -0.4359    2.3741 C   0  0  0  0  0  0  0  0  0  0  0  0
    1.0371   -1.3466    2.5297 C   0  0  0  0  0  0  0  0  0  0  0  0
    0.4866   -1.6200    3.7813 C   0  0  0  0  0  0  0  0  0  0  0  0
    0.9987   -1.0061    4.9113 C   0  0  0  0  0  0  0  0  0  0  0  0
    2.0533   -0.1069    4.7849 C   0  0  0  0  0  0  0  0  0  0  0  0
    2.6098    0.2155    3.5231 C   0  0  0  0  0  0  0  0  0  0  0  0
    3.6444    1.3354    3.4962 C   0  0  3  0  0  0  0  0  0  0  0  0
    4.5049    1.2447    2.3430 O   0  0  0  0  0  0  0  0  0  0  0  0
    2.9927    2.7177    3.5274 C   0  0  0  0  0  0  0  0  0  0  0  0
    2.6202    3.3206    4.7282 C   0  0  0  0  0  0  0  0  0  0  0  0
    1.9459    4.5400    4.6879 C   0  0  0  0  0  0  0  0  0  0  0  0
    1.6669    5.1243    3.4572 C   0  0  0  0  0  0  0  0  0  0  0  0
    2.0985    4.4759    2.3118 C   0  0  0  0  0  0  0  0  0  0  0  0
    2.7720    3.3075    2.3182 N   0  0  0  0  0  0  0  0  0  0  0  0
    2.9871   -0.3161   -1.3285 C   0  0  0  0  0  0  0  0  0  0  0  0
    4.3694   -0.5492   -1.3326 C   0  0  0  0  0  0  0  0  0  0  0  0
    5.1074   -0.2987   -2.4959 C   0  0  0  0  0  0  0  0  0  0  0  0
    4.4682    0.2420   -3.6210 C   0  0  0  0  0  0  0  0  0  0  0  0
    5.2451    0.7194   -4.6896 N   0  0  0  0  0  0  0  0  0  0  0  0
    6.6138    0.7356   -4.6564 C   0  0  0  0  0  0  0  0  0  0  0  0
    7.2925    1.3826   -5.4444 O   0  0  0  0  0  0  0  0  0  0  0  0
    7.2492   -0.1151   -3.6187 C   0  0  0  0  0  0  0  0  0  0  0  0
    6.5360   -0.6022   -2.5936 C   0  0  0  0  0  0  0  0  0  0  0  0
    3.0851    0.3845   -3.6374 C   0  0  0  0  0  0  0  0  0  0  0  0
    2.4678    0.8252   -4.7436 F   0  0  0  0  0  0  0  0  0  0  0  0
    2.3382    0.0932   -2.5047 C   0  0  0  0  0  0  0  0  0  0  0  0
    3.5203    0.3595    1.1161 H   0  0  0  0  0  0  0  0  0  0  0  0
    0.6166   -1.8752    1.6817 H   0  0  0  0  0  0  0  0  0  0  0  0
   -0.3439   -2.3168    3.8595 H   0  0  0  0  0  0  0  0  0  0  0  0
    0.5689   -1.2172    5.8864 H   0  0  0  0  0  0  0  0  0  0  0  0
    2.4250    0.3719    5.6887 H   0  0  0  0  0  0  0  0  0  0  0  0
    4.3087    1.2360    4.3637 H   0  0  0  0  0  0  0  0  0  0  0  0
    4.4659    2.1445    1.9542 H   0  0  0  0  0  0  0  0  0  0  0  0
    2.8313    2.8540    5.6848 H   0  0  0  0  0  0  0  0  0  0  0  0
    1.6320    5.0251    5.6085 H   0  0  0  0  0  0  0  0  0  0  0  0
    1.1165    6.0572    3.3950 H   0  0  0  0  0  0  0  0  0  0  0  0
    1.8946    4.8932    1.3295 H   0  0  0  0  0  0  0  0  0  0  0  0
    4.8614   -0.9344   -0.4431 H   0  0  0  0  0  0  0  0  0  0  0  0
    4.7961    1.2425   -5.4321 H   0  0  0  0  0  0  0  0  0  0  0  0
    8.3040   -0.3205   -3.7497 H   0  0  0  0  0  0  0  0  0  0  0  0
    6.9879   -1.2578   -1.8577 H   0  0  0  0  0  0  0  0  0  0  0  0
    1.2571    0.2068   -2.5365 H   0  0  0  0  0  0  0  0  0  0  0  0
  1  2  2  0  0  0  0
  2  3  1  0  0  0  0
  2 18  1  0  0  0  0
  3  4  1  0  0  0  0
  3 30  1  0  0  0  0
  4  5  2  0  0  0  0
  4  9  1  0  0  0  0
  5  6  1  0  0  0  0
  5 31  1  0  0  0  0
  6  7  2  0  0  0  0
  6 32  1  0  0  0  0
  7  8  1  0  0  0  0
  7 33  1  0  0  0  0
  8  9  2  0  0  0  0
  8 34  1  0  0  0  0
  9 10  1  0  0  0  0
 10 11  1  0  0  0  0
 10 12  1  0  0  0  0
 10 35  1  0  0  0  0
 11 36  1  0  0  0  0
 12 13  2  0  0  0  0
 12 17  1  0  0  0  0
 13 14  1  0  0  0  0
 13 37  1  0  0  0  0
 14 15  2  0  0  0  0
 14 38  1  0  0  0  0
 15 16  1  0  0  0  0
 15 39  1  0  0  0  0
 16 17  2  0  0  0  0
 16 40  1  0  0  0  0
 18 19  2  0  0  0  0
 18 29  1  0  0  0  0
 19 20  1  0  0  0  0
 19 41  1  0  0  0  0
 20 21  2  0  0  0  0
 20 26  1  0  0  0  0
 21 22  1  0  0  0  0
 21 27  1  0  0  0  0
 22 23  1  0  0  0  0
 22 42  1  0  0  0  0
 23 24  2  0  0  0  0
 23 25  1  0  0  0  0
 25 26  2  0  0  0  0
 25 43  1  0  0  0  0
 26 44  1  0  0  0  0
 27 28  1  0  0  0  0
 27 29  2  0  0  0  0
 29 45  1  0  0  0  0
M  END
$$$$
