
 OpenBabel01122422383D

 45 48  0  0  1  0  0  0  0  0999 V2000
    1.1876   -0.6531   -0.3943 O   0  0  0  0  0  0  0  0  0  0  0  0
    2.3680   -0.3428   -0.3083 C   0  0  0  0  0  0  0  0  0  0  0  0
    3.0202    0.4689   -1.2121 N   0  0  0  0  0  0  0  0  0  0  0  0
    2.3171    1.0822   -2.3216 C   0  0  3  0  0  0  0  0  0  0  0  0
    1.8957    2.5097   -2.0134 C   0  0  0  0  0  0  0  0  0  0  0  0
    2.8018    3.4898   -1.5664 C   0  0  0  0  0  0  0  0  0  0  0  0
    2.3735    4.7916   -1.2896 C   0  0  0  0  0  0  0  0  0  0  0  0
    1.0291    5.1321   -1.4258 C   0  0  0  0  0  0  0  0  0  0  0  0
    0.1124    4.1742   -1.8458 C   0  0  0  0  0  0  0  0  0  0  0  0
    0.5420    2.8751   -2.1406 C   0  0  0  0  0  0  0  0  0  0  0  0
    3.2145    1.0593   -3.5307 C   0  0  0  0  0  0  0  0  0  0  0  0
    3.7382   -0.0975   -4.0922 C   0  0  0  0  0  0  0  0  0  0  0  0
    4.5054    0.1729   -5.1753 O   0  0  0  0  0  0  0  0  0  0  0  0
    4.4772    1.5154   -5.3502 C   0  0  0  0  0  0  0  0  0  0  0  0
    3.6948    2.1044   -4.3826 C   0  0  0  0  0  0  0  0  0  0  0  0
    3.2127   -0.8804    0.8503 C   0  0  0  0  0  0  0  0  0  0  0  0
    2.8808   -2.0474    1.3392 N   0  0  0  0  0  0  0  0  0  0  0  0
    3.5680   -2.5265    2.4348 N   0  0  0  0  0  0  0  0  0  0  0  0
    3.1259   -3.8045    2.9106 C   0  0  0  0  0  0  0  0  0  0  0  0
    3.1668   -4.1554    4.2709 C   0  0  0  0  0  0  0  0  0  0  0  0
    2.7242   -5.4077    4.6946 C   0  0  0  0  0  0  0  0  0  0  0  0
    2.7593   -5.7080    6.0005 F   0  0  0  0  0  0  0  0  0  0  0  0
    2.2432   -6.3482    3.7940 C   0  0  0  0  0  0  0  0  0  0  0  0
    2.1976   -6.0274    2.4419 C   0  0  0  0  0  0  0  0  0  0  0  0
    2.6255   -4.7664    2.0096 C   0  0  0  0  0  0  0  0  0  0  0  0
    4.5755   -1.8043    3.0443 C   0  0  0  0  0  0  0  0  0  0  0  0
    5.0314   -0.6251    2.6196 C   0  0  0  0  0  0  0  0  0  0  0  0
    4.3818   -0.1035    1.4114 C   0  0  0  0  0  0  0  0  0  0  0  0
    4.7905    0.8985    0.8424 O   0  0  0  0  0  0  0  0  0  0  0  0
    3.9380    0.8326   -0.9713 H   0  0  0  0  0  0  0  0  0  0  0  0
    1.4283    0.4816   -2.5545 H   0  0  0  0  0  0  0  0  0  0  0  0
    3.8558    3.2496   -1.4446 H   0  0  0  0  0  0  0  0  0  0  0  0
    3.0909    5.5410   -0.9629 H   0  0  0  0  0  0  0  0  0  0  0  0
    0.6966    6.1418   -1.1994 H   0  0  0  0  0  0  0  0  0  0  0  0
   -0.9396    4.4312   -1.9372 H   0  0  0  0  0  0  0  0  0  0  0  0
   -0.1974    2.1425   -2.4608 H   0  0  0  0  0  0  0  0  0  0  0  0
    3.6543   -1.1455   -3.8367 H   0  0  0  0  0  0  0  0  0  0  0  0
    5.0433    1.8909   -6.1907 H   0  0  0  0  0  0  0  0  0  0  0  0
    3.4970    3.1672   -4.3133 H   0  0  0  0  0  0  0  0  0  0  0  0
    3.5028   -3.4581    5.0305 H   0  0  0  0  0  0  0  0  0  0  0  0
    1.9039   -7.3152    4.1504 H   0  0  0  0  0  0  0  0  0  0  0  0
    1.8287   -6.7516    1.7199 H   0  0  0  0  0  0  0  0  0  0  0  0
    2.5850   -4.5374    0.9466 H   0  0  0  0  0  0  0  0  0  0  0  0
    5.0417   -2.2805    3.9016 H   0  0  0  0  0  0  0  0  0  0  0  0
    5.8460   -0.0820    3.0734 H   0  0  0  0  0  0  0  0  0  0  0  0
  1  2  2  0  0  0  0
  2  3  1  0  0  0  0
  2 16  1  0  0  0  0
  3  4  1  0  0  0  0
  3 30  1  0  0  0  0
  4  5  1  0  0  0  0
  4 11  1  0  0  0  0
  4 31  1  0  0  0  0
  5  6  2  0  0  0  0
  5 10  1  0  0  0  0
  6  7  1  0  0  0  0
  6 32  1  0  0  0  0
  7  8  2  0  0  0  0
  7 33  1  0  0  0  0
  8  9  1  0  0  0  0
  8 34  1  0  0  0  0
  9 10  2  0  0  0  0
  9 35  1  0  0  0  0
 10 36  1  0  0  0  0
 11 12  2  0  0  0  0
 11 15  1  0  0  0  0
 12 13  1  0  0  0  0
 12 37  1  0  0  0  0
 13 14  1  0  0  0  0
 14 15  2  0  0  0  0
 14 38  1  0  0  0  0
 15 39  1  0  0  0  0
 16 17  2  0  0  0  0
 16 28  1  0  0  0  0
 17 18  1  0  0  0  0
 18 19  1  0  0  0  0
 18 26  1  0  0  0  0
 19 20  2  0  0  0  0
 19 25  1  0  0  0  0
 20 21  1  0  0  0  0
 20 40  1  0  0  0  0
 21 22  1  0  0  0  0
 21 23  2  0  0  0  0
 23 24  1  0  0  0  0
 23 41  1  0  0  0  0
 24 25  2  0  0  0  0
 24 42  1  0  0  0  0
 25 43  1  0  0  0  0
 26 27  2  0  0  0  0
 26 44  1  0  0  0  0
 27 28  1  0  0  0  0
 27 45  1  0  0  0  0
 28 29  2  0  0  0  0
M  END
$$$$
