
 OpenBabel01122422383D

 49 52  0  0  0  0  0  0  0  0999 V2000
    1.1426   -0.0513   -0.0515 O   0  0  0  0  0  0  0  0  0  0  0  0
    2.3629    0.0684   -0.1076 C   0  0  0  0  0  0  0  0  0  0  0  0
    3.0679    0.1311   -1.2867 N   0  0  0  0  0  0  0  0  0  0  0  0
    2.3947    0.0149   -2.5620 C   0  0  0  0  0  0  0  0  0  0  0  0
    3.1081    0.7895   -3.6453 C   0  0  0  0  0  0  0  0  0  0  0  0
    2.4381    1.8026   -4.3315 C   0  0  0  0  0  0  0  0  0  0  0  0
    3.1071    2.4924   -5.3370 C   0  0  0  0  0  0  0  0  0  0  0  0
    4.4213    2.1558   -5.6345 C   0  0  0  0  0  0  0  0  0  0  0  0
    5.0184    1.1406   -4.9031 C   0  0  0  0  0  0  0  0  0  0  0  0
    4.3978    0.4549   -3.9148 N   0  0  0  0  0  0  0  0  0  0  0  0
    3.1621    0.1173    1.1432 C   0  0  0  0  0  0  0  0  0  0  0  0
    2.6975   -0.5861    2.2596 C   0  0  0  0  0  0  0  0  0  0  0  0
    3.4083   -0.5475    3.4639 C   0  0  0  0  0  0  0  0  0  0  0  0
    4.5766    0.2220    3.5789 C   0  0  0  0  0  0  0  0  0  0  0  0
    5.3014    0.3338    4.8986 C   0  0  0  0  0  0  0  0  0  0  0  0
    6.3415   -0.6547    5.0530 N   0  0  0  0  0  0  0  0  0  0  0  0
    7.1322   -0.6364    6.1914 C   0  0  0  0  0  0  0  0  0  0  0  0
    7.1419    0.2866    7.0028 O   0  0  0  0  0  0  0  0  0  0  0  0
    7.8413   -1.8921    6.4034 C   0  0  0  0  0  0  0  0  0  0  0  0
    8.3564   -2.6764    5.3839 C   0  0  0  0  0  0  0  0  0  0  0  0
    8.5553   -3.9283    5.8855 N   0  0  0  0  0  0  0  0  0  0  0  0
    8.3107   -3.9320    7.2374 C   0  0  0  0  0  0  0  0  0  0  0  0
    8.0449   -2.6167    7.6243 C   0  0  0  0  0  0  0  0  0  0  0  0
    7.9026   -2.3494    9.0051 C   0  0  0  0  0  0  0  0  0  0  0  0
    7.9409   -3.4124    9.9250 C   0  0  0  0  0  0  0  0  0  0  0  0
    8.0742   -4.7278    9.4856 C   0  0  0  0  0  0  0  0  0  0  0  0
    8.2760   -4.9943    8.1364 C   0  0  0  0  0  0  0  0  0  0  0  0
    8.3903   -6.2563    7.7033 F   0  0  0  0  0  0  0  0  0  0  0  0
    5.0339    0.9268    2.4544 C   0  0  0  0  0  0  0  0  0  0  0  0
    4.3299    0.8812    1.2441 C   0  0  0  0  0  0  0  0  0  0  0  0
    4.0676   -0.0334   -1.2937 H   0  0  0  0  0  0  0  0  0  0  0  0
    1.3586    0.3539   -2.4632 H   0  0  0  0  0  0  0  0  0  0  0  0
    2.3738   -1.0469   -2.8312 H   0  0  0  0  0  0  0  0  0  0  0  0
    1.4113    2.0537   -4.0869 H   0  0  0  0  0  0  0  0  0  0  0  0
    2.6028    3.2840   -5.8834 H   0  0  0  0  0  0  0  0  0  0  0  0
    4.9661    2.6709   -6.4168 H   0  0  0  0  0  0  0  0  0  0  0  0
    6.0421    0.8421   -5.1024 H   0  0  0  0  0  0  0  0  0  0  0  0
    1.7719   -1.1562    2.1941 H   0  0  0  0  0  0  0  0  0  0  0  0
    3.0220   -1.0982    4.3195 H   0  0  0  0  0  0  0  0  0  0  0  0
    4.5943    0.2050    5.7266 H   0  0  0  0  0  0  0  0  0  0  0  0
    5.7446    1.3276    5.0085 H   0  0  0  0  0  0  0  0  0  0  0  0
    6.1910   -1.5525    4.6193 H   0  0  0  0  0  0  0  0  0  0  0  0
    8.4957   -2.4692    4.3306 H   0  0  0  0  0  0  0  0  0  0  0  0
    8.7990   -4.7493    5.3515 H   0  0  0  0  0  0  0  0  0  0  0  0
    7.7563   -1.3309    9.3606 H   0  0  0  0  0  0  0  0  0  0  0  0
    7.8280   -3.2111   10.9886 H   0  0  0  0  0  0  0  0  0  0  0  0
    8.0236   -5.5552   10.1868 H   0  0  0  0  0  0  0  0  0  0  0  0
    5.9280    1.5442    2.5258 H   0  0  0  0  0  0  0  0  0  0  0  0
    4.6784    1.4784    0.4049 H   0  0  0  0  0  0  0  0  0  0  0  0
  1  2  2  0  0  0  0
  2  3  1  0  0  0  0
  2 11  1  0  0  0  0
  3  4  1  0  0  0  0
  3 31  1  0  0  0  0
  4  5  1  0  0  0  0
  4 32  1  0  0  0  0
  4 33  1  0  0  0  0
  5  6  2  0  0  0  0
  5 10  1  0  0  0  0
  6  7  1  0  0  0  0
  6 34  1  0  0  0  0
  7  8  2  0  0  0  0
  7 35  1  0  0  0  0
  8  9  1  0  0  0  0
  8 36  1  0  0  0  0
  9 10  2  0  0  0  0
  9 37  1  0  0  0  0
 11 12  2  0  0  0  0
 11 30  1  0  0  0  0
 12 13  1  0  0  0  0
 12 38  1  0  0  0  0
 13 14  2  0  0  0  0
 13 39  1  0  0  0  0
 14 15  1  0  0  0  0
 14 29  1  0  0  0  0
 15 16  1  0  0  0  0
 15 40  1  0  0  0  0
 15 41  1  0  0  0  0
 16 17  1  0  0  0  0
 16 42  1  0  0  0  0
 17 18  2  0  0  0  0
 17 19  1  0  0  0  0
 19 20  2  0  0  0  0
 19 23  1  0  0  0  0
 20 21  1  0  0  0  0
 20 43  1  0  0  0  0
 21 22  1  0  0  0  0
 21 44  1  0  0  0  0
 22 23  2  0  0  0  0
 22 27  1  0  0  0  0
 23 24  1  0  0  0  0
 24 25  2  0  0  0  0
 24 45  1  0  0  0  0
 25 26  1  0  0  0  0
 25 46  1  0  0  0  0
 26 27  2  0  0  0  0
 26 47  1  0  0  0  0
 27 28  1  0  0  0  0
 29 30  2  0  0  0  0
 29 48  1  0  0  0  0
 30 49  1  0  0  0  0
M  END
$$$$
