
 OpenBabel01122422383D

 49 52  0  0  0  0  0  0  0  0999 V2000
    2.4528   -0.1686   -0.0049 C   0  0  0  0  0  0  0  0  0  0  0  0
    0.9583   -0.0305    0.0075 C   0  0  0  0  0  0  0  0  0  0  0  0
    0.3047    0.6712    1.0163 C   0  0  0  0  0  0  0  0  0  0  0  0
   -1.0867    0.7675    1.0098 C   0  0  0  0  0  0  0  0  0  0  0  0
   -1.8499    0.1301    0.0167 C   0  0  0  0  0  0  0  0  0  0  0  0
   -3.2640    0.1553    0.1339 N   0  0  0  0  0  0  0  0  0  0  0  0
   -3.9785    1.3296    0.3105 C   0  0  0  0  0  0  0  0  0  0  0  0
   -3.4813    2.4458    0.4305 O   0  0  0  0  0  0  0  0  0  0  0  0
   -5.4761    1.1926    0.1804 C   0  0  0  0  0  0  0  0  0  0  0  0
   -6.1235    0.0598    0.5093 C   0  0  0  0  0  0  0  0  0  0  0  0
   -7.5063   -0.0692    0.3828 N   0  0  0  0  0  0  0  0  0  0  0  0
   -8.0553   -1.3324    0.6893 C   0  0  0  0  0  0  0  0  0  0  0  0
   -9.3773   -1.7182    0.5725 C   0  0  0  0  0  0  0  0  0  0  0  0
   -9.4513   -3.0318    0.9297 N   0  0  0  0  0  0  0  0  0  0  0  0
  -10.6225   -3.8732    0.9093 C   0  0  0  0  0  0  0  0  0  0  0  0
   -8.2719   -3.5468    1.3083 N   0  0  0  0  0  0  0  0  0  0  0  0
   -7.4304   -2.5199    1.1670 C   0  0  0  0  0  0  0  0  0  0  0  0
   -8.3179    0.9911   -0.0537 C   0  0  0  0  0  0  0  0  0  0  0  0
   -9.5375    1.0088   -0.2010 O   0  0  0  0  0  0  0  0  0  0  0  0
   -7.5860    2.2572   -0.3774 C   0  0  0  0  0  0  0  0  0  0  0  0
   -6.2551    2.3287   -0.2680 C   0  0  0  0  0  0  0  0  0  0  0  0
   -1.2188   -0.5907   -1.0322 C   0  0  0  0  0  0  0  0  0  0  0  0
   -1.9564   -1.2563   -2.1529 C   0  0  0  0  0  0  0  0  0  0  0  0
   -3.1466   -0.7190   -2.6885 C   0  0  0  0  0  0  0  0  0  0  0  0
   -3.8923   -1.3860   -3.6678 C   0  0  0  0  0  0  0  0  0  0  0  0
   -3.4198   -2.5727   -4.2128 C   0  0  0  0  0  0  0  0  0  0  0  0
   -2.2070   -3.0886   -3.7724 C   0  0  0  0  0  0  0  0  0  0  0  0
   -1.5033   -2.4491   -2.7488 C   0  0  0  0  0  0  0  0  0  0  0  0
   -0.3618   -3.0290   -2.3461 F   0  0  0  0  0  0  0  0  0  0  0  0
    0.1958   -0.6227   -1.0127 C   0  0  0  0  0  0  0  0  0  0  0  0
    2.9102    0.3116    0.8661 H   0  0  0  0  0  0  0  0  0  0  0  0
    2.8691    0.2947   -0.9047 H   0  0  0  0  0  0  0  0  0  0  0  0
    2.7314   -1.2278    0.0152 H   0  0  0  0  0  0  0  0  0  0  0  0
    0.8673    1.1399    1.8207 H   0  0  0  0  0  0  0  0  0  0  0  0
   -1.5741    1.3058    1.8201 H   0  0  0  0  0  0  0  0  0  0  0  0
   -3.7455   -0.6221   -0.2972 H   0  0  0  0  0  0  0  0  0  0  0  0
   -5.5697   -0.7875    0.8926 H   0  0  0  0  0  0  0  0  0  0  0  0
  -10.2620   -1.1860    0.2534 H   0  0  0  0  0  0  0  0  0  0  0  0
  -11.4464   -3.3386    0.4304 H   0  0  0  0  0  0  0  0  0  0  0  0
  -10.8827   -4.1235    1.9403 H   0  0  0  0  0  0  0  0  0  0  0  0
  -10.3888   -4.7772    0.3407 H   0  0  0  0  0  0  0  0  0  0  0  0
   -6.3939   -2.6960    1.4176 H   0  0  0  0  0  0  0  0  0  0  0  0
   -8.1947    3.0935   -0.6975 H   0  0  0  0  0  0  0  0  0  0  0  0
   -5.7354    3.2534   -0.5065 H   0  0  0  0  0  0  0  0  0  0  0  0
   -3.5193    0.2472   -2.3555 H   0  0  0  0  0  0  0  0  0  0  0  0
   -4.8346   -0.9655   -4.0124 H   0  0  0  0  0  0  0  0  0  0  0  0
   -3.9846   -3.0843   -4.9876 H   0  0  0  0  0  0  0  0  0  0  0  0
   -1.7997   -3.9947   -4.2106 H   0  0  0  0  0  0  0  0  0  0  0  0
    0.7374   -1.1232   -1.8149 H   0  0  0  0  0  0  0  0  0  0  0  0
  1  2  1  0  0  0  0
  1 31  1  0  0  0  0
  1 32  1  0  0  0  0
  1 33  1  0  0  0  0
  2  3  2  0  0  0  0
  2 30  1  0  0  0  0
  3  4  1  0  0  0  0
  3 34  1  0  0  0  0
  4  5  2  0  0  0  0
  4 35  1  0  0  0  0
  5  6  1  0  0  0  0
  5 22  1  0  0  0  0
  6  7  1  0  0  0  0
  6 36  1  0  0  0  0
  7  8  2  0  0  0  0
  7  9  1  0  0  0  0
  9 10  2  0  0  0  0
  9 21  1  0  0  0  0
 10 11  1  0  0  0  0
 10 37  1  0  0  0  0
 11 12  1  0  0  0  0
 11 18  1  0  0  0  0
 12 13  2  0  0  0  0
 12 17  1  0  0  0  0
 13 14  1  0  0  0  0
 13 38  1  0  0  0  0
 14 15  1  0  0  0  0
 14 16  1  0  0  0  0
 15 39  1  0  0  0  0
 15 40  1  0  0  0  0
 15 41  1  0  0  0  0
 16 17  2  0  0  0  0
 17 42  1  0  0  0  0
 18 19  2  0  0  0  0
 18 20  1  0  0  0  0
 20 21  2  0  0  0  0
 20 43  1  0  0  0  0
 21 44  1  0  0  0  0
 22 23  1  0  0  0  0
 22 30  2  0  0  0  0
 23 24  2  0  0  0  0
 23 28  1  0  0  0  0
 24 25  1  0  0  0  0
 24 45  1  0  0  0  0
 25 26  2  0  0  0  0
 25 46  1  0  0  0  0
 26 27  1  0  0  0  0
 26 47  1  0  0  0  0
 27 28  2  0  0  0  0
 27 48  1  0  0  0  0
 28 29  1  0  0  0  0
 30 49  1  0  0  0  0
M  END
$$$$
