
 OpenBabel01122422353D

 43 46  0  0  0  0  0  0  0  0999 V2000
    1.4398   -2.1440   -1.3073 C   0  0  0  0  0  0  0  0  0  0  0  0
    0.9311   -1.0623   -0.4046 C   0  0  0  0  0  0  0  0  0  0  0  0
    0.0365   -1.3285    0.6073 C   0  0  0  0  0  0  0  0  0  0  0  0
   -0.3373   -0.2530    1.3816 C   0  0  0  0  0  0  0  0  0  0  0  0
    0.1257    1.0009    1.2027 N   0  0  0  0  0  0  0  0  0  0  0  0
    1.0007    1.1688    0.1936 C   0  0  0  0  0  0  0  0  0  0  0  0
    1.5759    2.5117   -0.0307 C   0  0  0  0  0  0  0  0  0  0  0  0
    2.4613    2.7323   -1.1039 C   0  0  0  0  0  0  0  0  0  0  0  0
    3.0416    3.9777   -1.3262 C   0  0  0  0  0  0  0  0  0  0  0  0
    2.7298    5.0460   -0.4933 C   0  0  0  0  0  0  0  0  0  0  0  0
    1.8283    4.8880    0.5603 C   0  0  0  0  0  0  0  0  0  0  0  0
    1.4348    5.9619    1.3936 N   0  0  0  0  0  0  0  0  0  0  0  0
    1.6364    7.3089    1.1403 C   0  0  0  0  0  0  0  0  0  0  0  0
    2.1987    7.7887    0.1613 O   0  0  0  0  0  0  0  0  0  0  0  0
    1.0500    8.1801    2.1471 C   0  0  0  0  0  0  0  0  0  0  0  0
    0.9776    9.5576    2.1047 C   0  0  0  0  0  0  0  0  0  0  0  0
    0.2408    9.9193    3.2077 N   0  0  0  0  0  0  0  0  0  0  0  0
   -0.2680   11.1892    3.5705 C   0  0  0  0  0  0  0  0  0  0  0  0
   -0.0803   12.3162    2.7641 C   0  0  0  0  0  0  0  0  0  0  0  0
    0.6449   12.2723    1.6395 F   0  0  0  0  0  0  0  0  0  0  0  0
   -0.6609   13.5460    3.0905 C   0  0  0  0  0  0  0  0  0  0  0  0
   -1.4348   13.6717    4.2392 C   0  0  0  0  0  0  0  0  0  0  0  0
   -1.6092   12.5671    5.0673 C   0  0  0  0  0  0  0  0  0  0  0  0
   -1.0267   11.3410    4.7358 C   0  0  0  0  0  0  0  0  0  0  0  0
   -1.2369   10.3265    5.5855 F   0  0  0  0  0  0  0  0  0  0  0  0
   -0.0187    8.8024    3.9363 N   0  0  0  0  0  0  0  0  0  0  0  0
    0.4401    7.7412    3.2877 N   0  0  0  0  0  0  0  0  0  0  0  0
    1.2807    3.6171    0.8011 C   0  0  0  0  0  0  0  0  0  0  0  0
    1.4135    0.1766   -0.6232 N   0  0  0  0  0  0  0  0  0  0  0  0
    0.9924   -3.1150   -1.0728 H   0  0  0  0  0  0  0  0  0  0  0  0
    2.5253   -2.2329   -1.2003 H   0  0  0  0  0  0  0  0  0  0  0  0
    1.2067   -1.9024   -2.3490 H   0  0  0  0  0  0  0  0  0  0  0  0
   -0.3511   -2.3205    0.7962 H   0  0  0  0  0  0  0  0  0  0  0  0
   -1.0392   -0.3732    2.2011 H   0  0  0  0  0  0  0  0  0  0  0  0
    2.7115    1.9174   -1.7817 H   0  0  0  0  0  0  0  0  0  0  0  0
    3.7363    4.1162   -2.1493 H   0  0  0  0  0  0  0  0  0  0  0  0
    3.2218    5.9928   -0.6919 H   0  0  0  0  0  0  0  0  0  0  0  0
    0.8552    5.7417    2.1962 H   0  0  0  0  0  0  0  0  0  0  0  0
    1.3440   10.2522    1.3651 H   0  0  0  0  0  0  0  0  0  0  0  0
   -0.5089   14.3979    2.4332 H   0  0  0  0  0  0  0  0  0  0  0  0
   -1.9009   14.6224    4.4885 H   0  0  0  0  0  0  0  0  0  0  0  0
   -2.2047   12.6425    5.9726 H   0  0  0  0  0  0  0  0  0  0  0  0
    0.5905    3.4750    1.6321 H   0  0  0  0  0  0  0  0  0  0  0  0
  1  2  1  0  0  0  0
  1 30  1  0  0  0  0
  1 31  1  0  0  0  0
  1 32  1  0  0  0  0
  2  3  2  0  0  0  0
  2 29  1  0  0  0  0
  3  4  1  0  0  0  0
  3 33  1  0  0  0  0
  4  5  2  0  0  0  0
  4 34  1  0  0  0  0
  5  6  1  0  0  0  0
  6  7  1  0  0  0  0
  6 29  2  0  0  0  0
  7  8  2  0  0  0  0
  7 28  1  0  0  0  0
  8  9  1  0  0  0  0
  8 35  1  0  0  0  0
  9 10  2  0  0  0  0
  9 36  1  0  0  0  0
 10 11  1  0  0  0  0
 10 37  1  0  0  0  0
 11 12  1  0  0  0  0
 11 28  2  0  0  0  0
 12 13  1  0  0  0  0
 12 38  1  0  0  0  0
 13 14  2  0  0  0  0
 13 15  1  0  0  0  0
 15 16  2  0  0  0  0
 15 27  1  0  0  0  0
 16 17  1  0  0  0  0
 16 39  1  0  0  0  0
 17 18  1  0  0  0  0
 17 26  1  0  0  0  0
 18 19  2  0  0  0  0
 18 24  1  0  0  0  0
 19 20  1  0  0  0  0
 19 21  1  0  0  0  0
 21 22  2  0  0  0  0
 21 40  1  0  0  0  0
 22 23  1  0  0  0  0
 22 41  1  0  0  0  0
 23 24  2  0  0  0  0
 23 42  1  0  0  0  0
 24 25  1  0  0  0  0
 26 27  2  0  0  0  0
 28 43  1  0  0  0  0
M  END
$$$$
