
 OpenBabel01122422383D

 37 40  0  0  0  0  0  0  0  0999 V2000
    1.0183   -0.2694   -0.1266 O   0  0  0  0  0  0  0  0  0  0  0  0
    2.2328   -0.0941   -0.1303 C   0  0  0  0  0  0  0  0  0  0  0  0
    2.8833    0.8207    0.6867 N   0  0  0  0  0  0  0  0  0  0  0  0
    2.2372    1.5956    1.6841 C   0  0  0  0  0  0  0  0  0  0  0  0
    0.9518    1.2902    2.1599 C   0  0  0  0  0  0  0  0  0  0  0  0
    0.3199    2.0786    3.1212 C   0  0  0  0  0  0  0  0  0  0  0  0
    0.9758    3.1840    3.6367 C   0  0  0  0  0  0  0  0  0  0  0  0
    0.3028    3.9129    4.5839 O   0  0  0  0  0  0  0  0  0  0  0  0
    0.9452    5.0001    5.1193 C   0  0  0  0  0  0  0  0  0  0  0  0
    2.1650    5.4281    4.7849 C   0  0  0  0  0  0  0  0  0  0  0  0
    2.9193    4.6855    3.7569 C   0  0  0  0  0  0  0  0  0  0  0  0
    4.0326    5.0480    3.4023 O   0  0  0  0  0  0  0  0  0  0  0  0
    2.2595    3.4961    3.1894 C   0  0  0  0  0  0  0  0  0  0  0  0
    2.9006    2.7025    2.2211 C   0  0  0  0  0  0  0  0  0  0  0  0
    3.0337   -0.8358   -1.0697 C   0  0  0  0  0  0  0  0  0  0  0  0
    2.5910   -1.6701   -2.0633 C   0  0  0  0  0  0  0  0  0  0  0  0
    3.7493   -2.1444   -2.7107 C   0  0  0  0  0  0  0  0  0  0  0  0
    3.7629   -3.0267   -3.8702 C   0  0  0  0  0  0  0  0  0  0  0  0
    2.7526   -2.9170   -4.8402 C   0  0  0  0  0  0  0  0  0  0  0  0
    1.8115   -1.9646   -4.7433 F   0  0  0  0  0  0  0  0  0  0  0  0
    2.6756   -3.7838   -5.9245 C   0  0  0  0  0  0  0  0  0  0  0  0
    3.6283   -4.7806   -6.0511 C   0  0  0  0  0  0  0  0  0  0  0  0
    3.5563   -5.6295   -7.0833 F   0  0  0  0  0  0  0  0  0  0  0  0
    4.6483   -4.9166   -5.1179 C   0  0  0  0  0  0  0  0  0  0  0  0
    4.7101   -4.0398   -4.0336 C   0  0  0  0  0  0  0  0  0  0  0  0
    5.6801   -4.2306   -3.1281 F   0  0  0  0  0  0  0  0  0  0  0  0
    4.8467   -1.6508   -2.1101 N   0  0  0  0  0  0  0  0  0  0  0  0
    4.3919   -0.8207   -1.0833 O   0  0  0  0  0  0  0  0  0  0  0  0
    3.8579    1.0180    0.4814 H   0  0  0  0  0  0  0  0  0  0  0  0
    0.3990    0.4215    1.8163 H   0  0  0  0  0  0  0  0  0  0  0  0
   -0.6795    1.8182    3.4587 H   0  0  0  0  0  0  0  0  0  0  0  0
    0.3209    5.4786    5.8636 H   0  0  0  0  0  0  0  0  0  0  0  0
    2.6309    6.2943    5.2330 H   0  0  0  0  0  0  0  0  0  0  0  0
    3.8976    2.9787    1.8852 H   0  0  0  0  0  0  0  0  0  0  0  0
    1.5548   -1.8783   -2.2900 H   0  0  0  0  0  0  0  0  0  0  0  0
    1.8768   -3.6825   -6.6508 H   0  0  0  0  0  0  0  0  0  0  0  0
    5.3818   -5.7083   -5.2236 H   0  0  0  0  0  0  0  0  0  0  0  0
  1  2  2  0  0  0  0
  2  3  1  0  0  0  0
  2 15  1  0  0  0  0
  3  4  1  0  0  0  0
  3 29  1  0  0  0  0
  4  5  2  0  0  0  0
  4 14  1  0  0  0  0
  5  6  1  0  0  0  0
  5 30  1  0  0  0  0
  6  7  2  0  0  0  0
  6 31  1  0  0  0  0
  7  8  1  0  0  0  0
  7 13  1  0  0  0  0
  8  9  1  0  0  0  0
  9 10  2  0  0  0  0
  9 32  1  0  0  0  0
 10 11  1  0  0  0  0
 10 33  1  0  0  0  0
 11 12  2  0  0  0  0
 11 13  1  0  0  0  0
 13 14  2  0  0  0  0
 14 34  1  0  0  0  0
 15 16  2  0  0  0  0
 15 28  1  0  0  0  0
 16 17  1  0  0  0  0
 16 35  1  0  0  0  0
 17 18  1  0  0  0  0
 17 27  2  0  0  0  0
 18 19  2  0  0  0  0
 18 25  1  0  0  0  0
 19 20  1  0  0  0  0
 19 21  1  0  0  0  0
 21 22  2  0  0  0  0
 21 36  1  0  0  0  0
 22 23  1  0  0  0  0
 22 24  1  0  0  0  0
 24 25  2  0  0  0  0
 24 37  1  0  0  0  0
 25 26  1  0  0  0  0
 27 28  1  0  0  0  0
M  END
$$$$
