
 OpenBabel01122422393D

 46 49  0  0  0  0  0  0  0  0999 V2000
    1.1041    0.3007   -0.0973 O   0  0  0  0  0  0  0  0  0  0  0  0
    2.3222    0.0830   -0.1079 C   0  0  0  0  0  0  0  0  0  0  0  0
    3.0077   -0.0679   -1.4600 C   0  0  0  0  0  0  0  0  0  0  0  0
    2.4217    0.5357   -2.5105 C   0  0  0  0  0  0  0  0  0  0  0  0
    2.9207    0.4601   -3.8182 N   0  0  0  0  0  0  0  0  0  0  0  0
    2.1976    1.0274   -4.9349 C   0  0  0  0  0  0  0  0  0  0  0  0
    2.2809    0.4542   -6.2147 C   0  0  0  0  0  0  0  0  0  0  0  0
    1.5636    0.9862   -7.2824 C   0  0  0  0  0  0  0  0  0  0  0  0
    1.6534    0.4098   -8.4884 F   0  0  0  0  0  0  0  0  0  0  0  0
    0.7478    2.0943   -7.1162 C   0  0  0  0  0  0  0  0  0  0  0  0
    0.6415    2.6749   -5.8569 C   0  0  0  0  0  0  0  0  0  0  0  0
    1.3548    2.1415   -4.7748 C   0  0  0  0  0  0  0  0  0  0  0  0
    4.1517   -0.1838   -4.0642 C   0  0  0  0  0  0  0  0  0  0  0  0
    4.7926   -0.1901   -5.1133 O   0  0  0  0  0  0  0  0  0  0  0  0
    4.7377   -0.9297   -2.9237 C   0  0  0  0  0  0  0  0  0  0  0  0
    4.1536   -0.9063   -1.7224 C   0  0  0  0  0  0  0  0  0  0  0  0
    3.0255   -0.0655    1.0895 N   0  0  0  0  0  0  0  0  0  0  0  0
    2.3075    0.1099    2.3586 C   0  0  0  0  0  0  0  0  0  0  0  0
    1.7292   -1.1712    2.8371 C   0  0  0  0  0  0  0  0  0  0  0  0
    1.9082   -1.8823    4.0042 C   0  0  0  0  0  0  0  0  0  0  0  0
    1.1338   -3.0128    4.0119 N   0  0  0  0  0  0  0  0  0  0  0  0
    0.4674   -2.9845    2.8808 C   0  0  0  0  0  0  0  0  0  0  0  0
    0.7815   -1.8811    2.1420 N   0  0  0  0  0  0  0  0  0  0  0  0
    4.4328   -0.1797    1.1893 C   0  0  0  0  0  0  0  0  0  0  0  0
    5.2664    0.8237    0.6851 C   0  0  0  0  0  0  0  0  0  0  0  0
    6.6394    0.5983    0.5863 C   0  0  0  0  0  0  0  0  0  0  0  0
    7.1778   -0.6240    0.9907 C   0  0  0  0  0  0  0  0  0  0  0  0
    6.3547   -1.6038    1.5457 C   0  0  0  0  0  0  0  0  0  0  0  0
    4.9845   -1.3750    1.6705 C   0  0  0  0  0  0  0  0  0  0  0  0
    1.4931    1.0871   -2.3697 H   0  0  0  0  0  0  0  0  0  0  0  0
    2.8731   -0.4343   -6.4107 H   0  0  0  0  0  0  0  0  0  0  0  0
    0.2038    2.4937   -7.9658 H   0  0  0  0  0  0  0  0  0  0  0  0
    0.0109    3.5488   -5.7140 H   0  0  0  0  0  0  0  0  0  0  0  0
    1.2673    2.6502   -3.8190 H   0  0  0  0  0  0  0  0  0  0  0  0
    5.6267   -1.5127   -3.1299 H   0  0  0  0  0  0  0  0  0  0  0  0
    4.5655   -1.5376   -0.9479 H   0  0  0  0  0  0  0  0  0  0  0  0
    1.5040    0.8460    2.2272 H   0  0  0  0  0  0  0  0  0  0  0  0
    2.9881    0.5277    3.1120 H   0  0  0  0  0  0  0  0  0  0  0  0
    2.5508   -1.6391    4.8409 H   0  0  0  0  0  0  0  0  0  0  0  0
   -0.2523   -3.7222    2.5509 H   0  0  0  0  0  0  0  0  0  0  0  0
    0.3885   -1.6244    1.2422 H   0  0  0  0  0  0  0  0  0  0  0  0
    4.8526    1.7665    0.3371 H   0  0  0  0  0  0  0  0  0  0  0  0
    7.2855    1.3627    0.1624 H   0  0  0  0  0  0  0  0  0  0  0  0
    8.2405   -0.8171    0.8635 H   0  0  0  0  0  0  0  0  0  0  0  0
    6.7734   -2.5615    1.8455 H   0  0  0  0  0  0  0  0  0  0  0  0
    4.3472   -2.1710    2.0475 H   0  0  0  0  0  0  0  0  0  0  0  0
  1  2  2  0  0  0  0
  2  3  1  0  0  0  0
  2 17  1  0  0  0  0
  3  4  2  0  0  0  0
  3 16  1  0  0  0  0
  4  5  1  0  0  0  0
  4 30  1  0  0  0  0
  5  6  1  0  0  0  0
  5 13  1  0  0  0  0
  6  7  2  0  0  0  0
  6 12  1  0  0  0  0
  7  8  1  0  0  0  0
  7 31  1  0  0  0  0
  8  9  1  0  0  0  0
  8 10  2  0  0  0  0
 10 11  1  0  0  0  0
 10 32  1  0  0  0  0
 11 12  2  0  0  0  0
 11 33  1  0  0  0  0
 12 34  1  0  0  0  0
 13 14  2  0  0  0  0
 13 15  1  0  0  0  0
 15 16  2  0  0  0  0
 15 35  1  0  0  0  0
 16 36  1  0  0  0  0
 17 18  1  0  0  0  0
 17 24  1  0  0  0  0
 18 19  1  0  0  0  0
 18 37  1  0  0  0  0
 18 38  1  0  0  0  0
 19 20  2  0  0  0  0
 19 23  1  0  0  0  0
 20 21  1  0  0  0  0
 20 39  1  0  0  0  0
 21 22  2  0  0  0  0
 22 23  1  0  0  0  0
 22 40  1  0  0  0  0
 23 41  1  0  0  0  0
 24 25  2  0  0  0  0
 24 29  1  0  0  0  0
 25 26  1  0  0  0  0
 25 42  1  0  0  0  0
 26 27  2  0  0  0  0
 26 43  1  0  0  0  0
 27 28  1  0  0  0  0
 27 44  1  0  0  0  0
 28 29  2  0  0  0  0
 28 45  1  0  0  0  0
 29 46  1  0  0  0  0
M  END
$$$$
