
 OpenBabel01122422393D

 43 46  0  0  0  0  0  0  0  0999 V2000
   -2.9251   -0.1003    0.6906 N   0  0  0  0  0  0  0  0  0  0  0  0
   -1.7780   -0.1402    0.5295 C   0  0  0  0  0  0  0  0  0  0  0  0
   -0.3761   -0.0315    0.3201 C   0  0  0  0  0  0  0  0  0  0  0  0
    0.3213    1.1394    0.0898 C   0  0  0  0  0  0  0  0  0  0  0  0
   -0.0135    2.5342   -0.0600 C   0  0  0  0  0  0  0  0  0  0  0  0
    0.8769    3.3315   -0.3304 O   0  0  0  0  0  0  0  0  0  0  0  0
   -1.3392    2.8814    0.1446 N   0  0  0  0  0  0  0  0  0  0  0  0
   -1.8818    4.1805    0.0282 C   0  0  0  0  0  0  0  0  0  0  0  0
   -1.2271    5.2420   -0.5752 C   0  0  0  0  0  0  0  0  0  0  0  0
   -1.8300    6.4990   -0.6091 C   0  0  0  0  0  0  0  0  0  0  0  0
   -3.0924    6.6970   -0.0424 C   0  0  0  0  0  0  0  0  0  0  0  0
   -3.6868    8.0014   -0.0562 N   0  0  0  0  0  0  0  0  0  0  0  0
   -4.5315    8.3938    0.9788 C   0  0  0  0  0  0  0  0  0  0  0  0
   -5.0976    9.6047    1.0766 C   0  0  0  0  0  0  0  0  0  0  0  0
   -4.8270   10.5892    0.0021 C   0  0  0  0  0  0  0  0  0  0  0  0
   -5.2969   11.7193    0.0373 O   0  0  0  0  0  0  0  0  0  0  0  0
   -3.9704   10.1509   -1.1246 C   0  0  0  0  0  0  0  0  0  0  0  0
   -3.4661    8.9118   -1.0862 C   0  0  0  0  0  0  0  0  0  0  0  0
   -3.7422    5.6620    0.5471 N   0  0  0  0  0  0  0  0  0  0  0  0
   -3.1455    4.4429    0.5483 C   0  0  0  0  0  0  0  0  0  0  0  0
    1.6275    0.7367   -0.0141 N   0  0  0  0  0  0  0  0  0  0  0  0
    1.8141   -0.5808    0.1270 N   0  0  0  0  0  0  0  0  0  0  0  0
    0.5800   -1.0832    0.2965 C   0  0  0  0  0  0  0  0  0  0  0  0
    0.3739   -2.5281    0.4147 C   0  0  0  0  0  0  0  0  0  0  0  0
    1.3382   -3.3256    1.0474 C   0  0  0  0  0  0  0  0  0  0  0  0
    1.1766   -4.7107    1.1219 C   0  0  0  0  0  0  0  0  0  0  0  0
    0.0485   -5.3119    0.5679 C   0  0  0  0  0  0  0  0  0  0  0  0
   -0.9213   -4.5305   -0.0550 C   0  0  0  0  0  0  0  0  0  0  0  0
   -0.7581   -3.1462   -0.1360 C   0  0  0  0  0  0  0  0  0  0  0  0
   -1.9816    2.1884    0.5042 H   0  0  0  0  0  0  0  0  0  0  0  0
   -0.2512    5.1388   -1.0361 H   0  0  0  0  0  0  0  0  0  0  0  0
   -1.2725    7.3201   -1.0466 H   0  0  0  0  0  0  0  0  0  0  0  0
   -4.6927    7.6454    1.7510 H   0  0  0  0  0  0  0  0  0  0  0  0
   -5.7340    9.9079    1.8950 H   0  0  0  0  0  0  0  0  0  0  0  0
   -3.8015   10.8421   -1.9375 H   0  0  0  0  0  0  0  0  0  0  0  0
   -2.8716    8.5522   -1.9197 H   0  0  0  0  0  0  0  0  0  0  0  0
   -3.7371    3.6637    1.0233 H   0  0  0  0  0  0  0  0  0  0  0  0
    2.4322    1.3341   -0.1863 H   0  0  0  0  0  0  0  0  0  0  0  0
    2.2301   -2.8712    1.4755 H   0  0  0  0  0  0  0  0  0  0  0  0
    1.9379   -5.3193    1.6026 H   0  0  0  0  0  0  0  0  0  0  0  0
   -0.0706   -6.3913    0.6124 H   0  0  0  0  0  0  0  0  0  0  0  0
   -1.7997   -4.9981   -0.4927 H   0  0  0  0  0  0  0  0  0  0  0  0
   -1.5180   -2.5762   -0.6632 H   0  0  0  0  0  0  0  0  0  0  0  0
  1  2  3  0  0  0  0
  2  3  1  0  0  0  0
  3  4  2  0  0  0  0
  3 23  1  0  0  0  0
  4  5  1  0  0  0  0
  4 21  1  0  0  0  0
  5  6  2  0  0  0  0
  5  7  1  0  0  0  0
  7  8  1  0  0  0  0
  7 30  1  0  0  0  0
  8  9  2  0  0  0  0
  8 20  1  0  0  0  0
  9 10  1  0  0  0  0
  9 31  1  0  0  0  0
 10 11  2  0  0  0  0
 10 32  1  0  0  0  0
 11 12  1  0  0  0  0
 11 19  1  0  0  0  0
 12 13  1  0  0  0  0
 12 18  1  0  0  0  0
 13 14  2  0  0  0  0
 13 33  1  0  0  0  0
 14 15  1  0  0  0  0
 14 34  1  0  0  0  0
 15 16  2  0  0  0  0
 15 17  1  0  0  0  0
 17 18  2  0  0  0  0
 17 35  1  0  0  0  0
 18 36  1  0  0  0  0
 19 20  2  0  0  0  0
 20 37  1  0  0  0  0
 21 22  1  0  0  0  0
 21 38  1  0  0  0  0
 22 23  2  0  0  0  0
 23 24  1  0  0  0  0
 24 25  2  0  0  0  0
 24 29  1  0  0  0  0
 25 26  1  0  0  0  0
 25 39  1  0  0  0  0
 26 27  2  0  0  0  0
 26 40  1  0  0  0  0
 27 28  1  0  0  0  0
 27 41  1  0  0  0  0
 28 29  2  0  0  0  0
 28 42  1  0  0  0  0
 29 43  1  0  0  0  0
M  END
$$$$
