
 OpenBabel01122422393D

 42 45  0  0  0  0  0  0  0  0999 V2000
    3.9071   -2.7329    0.5796 O   0  0  0  0  0  0  0  0  0  0  0  0
    3.7663   -1.5704    0.2158 C   0  0  0  0  0  0  0  0  0  0  0  0
    2.9910   -1.2248   -0.8753 N   0  0  0  0  0  0  0  0  0  0  0  0
    2.3504   -2.0986   -1.7404 C   0  0  0  0  0  0  0  0  0  0  0  0
    2.6257   -3.3997   -1.8857 C   0  0  0  0  0  0  0  0  0  0  0  0
    1.9605   -4.2062   -2.8702 C   0  0  0  0  0  0  0  0  0  0  0  0
    1.0629   -3.6536   -3.6928 C   0  0  0  0  0  0  0  0  0  0  0  0
    0.7043   -2.3156   -3.5904 N   0  0  0  0  0  0  0  0  0  0  0  0
   -0.2120   -1.7503   -4.5254 C   0  0  0  0  0  0  0  0  0  0  0  0
    0.0312   -1.8858   -5.8990 C   0  0  0  0  0  0  0  0  0  0  0  0
   -0.8079   -1.2680   -6.8266 C   0  0  0  0  0  0  0  0  0  0  0  0
   -1.9228   -0.5544   -6.3903 C   0  0  0  0  0  0  0  0  0  0  0  0
   -2.1993   -0.4574   -5.0268 C   0  0  0  0  0  0  0  0  0  0  0  0
   -1.3378   -1.0403   -4.0943 C   0  0  0  0  0  0  0  0  0  0  0  0
    1.2792   -1.4793   -2.6167 C   0  0  0  0  0  0  0  0  0  0  0  0
    1.0303   -0.2778   -2.4424 O   0  0  0  0  0  0  0  0  0  0  0  0
    4.3854   -0.4915    0.9482 C   0  0  0  0  0  0  0  0  0  0  0  0
    5.6329   -0.5298    1.5877 C   0  0  0  0  0  0  0  0  0  0  0  0
    6.6742   -1.6184    1.6687 C   0  0  0  0  0  0  0  0  0  0  0  0
    6.3196   -2.7942    1.0994 F   0  0  0  0  0  0  0  0  0  0  0  0
    7.8386   -1.2477    1.0696 F   0  0  0  0  0  0  0  0  0  0  0  0
    6.9807   -1.8998    2.9663 F   0  0  0  0  0  0  0  0  0  0  0  0
    5.8234    0.6228    2.3322 N   0  0  0  0  0  0  0  0  0  0  0  0
    4.6715    1.2413    2.3205 C   0  0  0  0  0  0  0  0  0  0  0  0
    4.1897    2.2743    3.1682 C   0  0  0  0  0  0  0  0  0  0  0  0
    2.9317    2.7241    3.0206 C   0  0  0  0  0  0  0  0  0  0  0  0
    2.0799    2.2323    1.9530 C   0  0  0  0  0  0  0  0  0  0  0  0
    2.5089    1.2133    1.1876 C   0  0  0  0  0  0  0  0  0  0  0  0
    3.7869    0.6764    1.4028 N   0  0  0  0  0  0  0  0  0  0  0  0
    2.8093   -0.2493   -1.0741 H   0  0  0  0  0  0  0  0  0  0  0  0
    3.4039   -3.8987   -1.3162 H   0  0  0  0  0  0  0  0  0  0  0  0
    2.2196   -5.2564   -2.9391 H   0  0  0  0  0  0  0  0  0  0  0  0
    0.5546   -4.2520   -4.4429 H   0  0  0  0  0  0  0  0  0  0  0  0
    0.9129   -2.4132   -6.2538 H   0  0  0  0  0  0  0  0  0  0  0  0
   -0.5801   -1.3274   -7.8878 H   0  0  0  0  0  0  0  0  0  0  0  0
   -2.5722   -0.0670   -7.1130 H   0  0  0  0  0  0  0  0  0  0  0  0
   -3.0791    0.0842   -4.6884 H   0  0  0  0  0  0  0  0  0  0  0  0
   -1.5646   -0.9538   -3.0346 H   0  0  0  0  0  0  0  0  0  0  0  0
    4.8286    2.6105    3.9774 H   0  0  0  0  0  0  0  0  0  0  0  0
    2.5161    3.4386    3.7242 H   0  0  0  0  0  0  0  0  0  0  0  0
    1.0946    2.6695    1.8275 H   0  0  0  0  0  0  0  0  0  0  0  0
    1.8724    0.7876    0.4255 H   0  0  0  0  0  0  0  0  0  0  0  0
  1  2  2  0  0  0  0
  2  3  1  0  0  0  0
  2 17  1  0  0  0  0
  3  4  1  0  0  0  0
  3 30  1  0  0  0  0
  4  5  2  0  0  0  0
  4 15  1  0  0  0  0
  5  6  1  0  0  0  0
  5 31  1  0  0  0  0
  6  7  2  0  0  0  0
  6 32  1  0  0  0  0
  7  8  1  0  0  0  0
  7 33  1  0  0  0  0
  8  9  1  0  0  0  0
  8 15  1  0  0  0  0
  9 10  2  0  0  0  0
  9 14  1  0  0  0  0
 10 11  1  0  0  0  0
 10 34  1  0  0  0  0
 11 12  2  0  0  0  0
 11 35  1  0  0  0  0
 12 13  1  0  0  0  0
 12 36  1  0  0  0  0
 13 14  2  0  0  0  0
 13 37  1  0  0  0  0
 14 38  1  0  0  0  0
 15 16  2  0  0  0  0
 17 18  2  0  0  0  0
 17 29  1  0  0  0  0
 18 19  1  0  0  0  0
 18 23  1  0  0  0  0
 19 20  1  0  0  0  0
 19 21  1  0  0  0  0
 19 22  1  0  0  0  0
 23 24  2  0  0  0  0
 24 25  1  0  0  0  0
 24 29  1  0  0  0  0
 25 26  2  0  0  0  0
 25 39  1  0  0  0  0
 26 27  1  0  0  0  0
 26 40  1  0  0  0  0
 27 28  2  0  0  0  0
 27 41  1  0  0  0  0
 28 29  1  0  0  0  0
 28 42  1  0  0  0  0
M  END
$$$$
