
 OpenBabel01122422353D

 43 46  0  0  0  0  0  0  0  0999 V2000
    2.8257    1.4711    2.2362 O   0  0  0  0  0  0  0  0  0  0  0  0
    2.1896    1.3831    1.1953 C   0  0  0  0  0  0  0  0  0  0  0  0
    2.7341    1.3519   -0.0528 O   0  0  0  0  0  0  0  0  0  0  0  0
    4.1709    1.3498   -0.0972 C   0  0  0  0  0  0  0  0  0  0  0  0
    4.7349    2.7495   -0.0614 C   0  0  0  0  0  0  0  0  0  0  0  0
    5.1366    3.3157    1.1617 C   0  0  0  0  0  0  0  0  0  0  0  0
    5.6613    4.6209    1.2590 C   0  0  0  0  0  0  0  0  0  0  0  0
    6.0587    5.1755    2.5707 C   0  0  0  0  0  0  0  0  0  0  0  0
    5.3602    4.8669    3.7493 C   0  0  0  0  0  0  0  0  0  0  0  0
    5.7760    5.3693    4.9813 C   0  0  0  0  0  0  0  0  0  0  0  0
    6.8863    6.1916    5.0118 C   0  0  0  0  0  0  0  0  0  0  0  0
    7.5872    6.5341    3.9117 N   0  0  0  0  0  0  0  0  0  0  0  0
    7.1602    6.0197    2.7299 C   0  0  0  0  0  0  0  0  0  0  0  0
    5.7932    5.3471    0.0665 C   0  0  0  0  0  0  0  0  0  0  0  0
    5.4038    4.7891   -1.1506 C   0  0  0  0  0  0  0  0  0  0  0  0
    5.5519    5.5027   -2.2750 F   0  0  0  0  0  0  0  0  0  0  0  0
    4.8666    3.5091   -1.2243 C   0  0  0  0  0  0  0  0  0  0  0  0
    0.7606    1.2704    1.1102 C   0  0  0  0  0  0  0  0  0  0  0  0
   -0.0155    0.5788    0.1951 C   0  0  0  0  0  0  0  0  0  0  0  0
   -1.3128    0.6020    0.7239 C   0  0  0  0  0  0  0  0  0  0  0  0
   -1.3689    1.2438    1.8891 N   0  0  0  0  0  0  0  0  0  0  0  0
   -0.1285    1.7835    2.0396 N   0  0  0  0  0  0  0  0  0  0  0  0
    0.0508    2.8346    2.9752 C   0  0  0  0  0  0  0  0  0  0  0  0
   -0.7380    2.8633    4.1271 C   0  0  0  0  0  0  0  0  0  0  0  0
   -0.5973    3.9412    4.9824 C   0  0  0  0  0  0  0  0  0  0  0  0
    0.2342    4.9800    4.7500 N   0  0  0  0  0  0  0  0  0  0  0  0
    0.9666    4.9355    3.6165 C   0  0  0  0  0  0  0  0  0  0  0  0
    0.9286    3.8875    2.7118 C   0  0  0  0  0  0  0  0  0  0  0  0
    4.4593    0.8657   -1.0369 H   0  0  0  0  0  0  0  0  0  0  0  0
    4.5935    0.7258    0.6996 H   0  0  0  0  0  0  0  0  0  0  0  0
    5.0499    2.7085    2.0633 H   0  0  0  0  0  0  0  0  0  0  0  0
    4.4794    4.2279    3.7263 H   0  0  0  0  0  0  0  0  0  0  0  0
    5.2446    5.1195    5.8926 H   0  0  0  0  0  0  0  0  0  0  0  0
    7.2529    6.6063    5.9453 H   0  0  0  0  0  0  0  0  0  0  0  0
    7.7766    6.3121    1.8830 H   0  0  0  0  0  0  0  0  0  0  0  0
    6.1886    6.3601    0.0579 H   0  0  0  0  0  0  0  0  0  0  0  0
    4.5713    3.1160   -2.1933 H   0  0  0  0  0  0  0  0  0  0  0  0
    0.3266    0.0584   -0.6890 H   0  0  0  0  0  0  0  0  0  0  0  0
   -2.2157    0.1511    0.3297 H   0  0  0  0  0  0  0  0  0  0  0  0
   -1.4325    2.0642    4.3675 H   0  0  0  0  0  0  0  0  0  0  0  0
   -1.1725    4.0041    5.9018 H   0  0  0  0  0  0  0  0  0  0  0  0
    1.5913    5.8063    3.4363 H   0  0  0  0  0  0  0  0  0  0  0  0
    1.5201    3.9542    1.8065 H   0  0  0  0  0  0  0  0  0  0  0  0
  1  2  2  0  0  0  0
  2  3  1  0  0  0  0
  2 18  1  0  0  0  0
  3  4  1  0  0  0  0
  4  5  1  0  0  0  0
  4 29  1  0  0  0  0
  4 30  1  0  0  0  0
  5  6  2  0  0  0  0
  5 17  1  0  0  0  0
  6  7  1  0  0  0  0
  6 31  1  0  0  0  0
  7  8  1  0  0  0  0
  7 14  2  0  0  0  0
  8  9  2  0  0  0  0
  8 13  1  0  0  0  0
  9 10  1  0  0  0  0
  9 32  1  0  0  0  0
 10 11  2  0  0  0  0
 10 33  1  0  0  0  0
 11 12  1  0  0  0  0
 11 34  1  0  0  0  0
 12 13  2  0  0  0  0
 13 35  1  0  0  0  0
 14 15  1  0  0  0  0
 14 36  1  0  0  0  0
 15 16  1  0  0  0  0
 15 17  2  0  0  0  0
 17 37  1  0  0  0  0
 18 19  2  0  0  0  0
 18 22  1  0  0  0  0
 19 20  1  0  0  0  0
 19 38  1  0  0  0  0
 20 21  2  0  0  0  0
 20 39  1  0  0  0  0
 21 22  1  0  0  0  0
 22 23  1  0  0  0  0
 23 24  2  0  0  0  0
 23 28  1  0  0  0  0
 24 25  1  0  0  0  0
 24 40  1  0  0  0  0
 25 26  2  0  0  0  0
 25 41  1  0  0  0  0
 26 27  1  0  0  0  0
 27 28  2  0  0  0  0
 27 42  1  0  0  0  0
 28 43  1  0  0  0  0
M  END
$$$$
