
 OpenBabel01122422393D

 41 44  0  0  0  0  0  0  0  0999 V2000
    5.0805   -1.7113    1.4934 O   0  0  0  0  0  0  0  0  0  0  0  0
    4.4419   -1.1465    0.6098 C   0  0  0  0  0  0  0  0  0  0  0  0
    3.1454   -1.4576    0.2623 N   0  0  0  0  0  0  0  0  0  0  0  0
    2.3252   -2.3876    0.8568 C   0  0  0  0  0  0  0  0  0  0  0  0
    2.4651   -2.9051    2.0888 C   0  0  0  0  0  0  0  0  0  0  0  0
    1.6124   -3.9535    2.5634 C   0  0  0  0  0  0  0  0  0  0  0  0
    0.6884   -4.4888    1.7522 C   0  0  0  0  0  0  0  0  0  0  0  0
    0.4501   -3.9814    0.4810 N   0  0  0  0  0  0  0  0  0  0  0  0
   -0.4703   -4.6310   -0.3966 C   0  0  0  0  0  0  0  0  0  0  0  0
   -0.4252   -6.0261   -0.5344 C   0  0  0  0  0  0  0  0  0  0  0  0
   -1.2519   -6.6737   -1.4532 C   0  0  0  0  0  0  0  0  0  0  0  0
   -2.1605   -5.9367   -2.2098 C   0  0  0  0  0  0  0  0  0  0  0  0
   -2.2413   -4.5544   -2.0537 C   0  0  0  0  0  0  0  0  0  0  0  0
   -1.3894   -3.9020   -1.1608 C   0  0  0  0  0  0  0  0  0  0  0  0
    1.1686   -2.8712    0.0003 C   0  0  0  0  0  0  0  0  0  0  0  0
    0.9966   -2.3123   -1.0829 O   0  0  0  0  0  0  0  0  0  0  0  0
    5.1130   -0.0273   -0.1203 C   0  0  0  0  0  0  0  0  0  0  0  0
    4.3945    0.8528   -0.9386 C   0  0  0  0  0  0  0  0  0  0  0  0
    3.1081    0.6177   -1.2468 F   0  0  0  0  0  0  0  0  0  0  0  0
    4.9324    2.1080   -1.2577 C   0  0  0  0  0  0  0  0  0  0  0  0
    4.1973    3.0737   -1.9434 C   0  0  0  0  0  0  0  0  0  0  0  0
    4.4509    4.4058   -1.6654 C   0  0  0  0  0  0  0  0  0  0  0  0
    5.6444    4.7052   -1.0430 C   0  0  0  0  0  0  0  0  0  0  0  0
    6.5607    3.7732   -0.6923 N   0  0  0  0  0  0  0  0  0  0  0  0
    6.1775    2.4884   -0.7346 C   0  0  0  0  0  0  0  0  0  0  0  0
    6.9670    1.5099   -0.1535 C   0  0  0  0  0  0  0  0  0  0  0  0
    6.4344    0.2673    0.1766 C   0  0  0  0  0  0  0  0  0  0  0  0
    2.7660   -1.0722   -0.6057 H   0  0  0  0  0  0  0  0  0  0  0  0
    3.2617   -2.5790    2.7497 H   0  0  0  0  0  0  0  0  0  0  0  0
    1.7656   -4.3406    3.5667 H   0  0  0  0  0  0  0  0  0  0  0  0
    0.0711   -5.3080    2.0966 H   0  0  0  0  0  0  0  0  0  0  0  0
    0.3065   -6.6129    0.0150 H   0  0  0  0  0  0  0  0  0  0  0  0
   -1.1671   -7.7473   -1.5944 H   0  0  0  0  0  0  0  0  0  0  0  0
   -2.7983   -6.4393   -2.9314 H   0  0  0  0  0  0  0  0  0  0  0  0
   -2.9551   -3.9794   -2.6368 H   0  0  0  0  0  0  0  0  0  0  0  0
   -1.4629   -2.8230   -1.0548 H   0  0  0  0  0  0  0  0  0  0  0  0
    3.3965    2.7959   -2.6239 H   0  0  0  0  0  0  0  0  0  0  0  0
    3.7269    5.1759   -1.9090 H   0  0  0  0  0  0  0  0  0  0  0  0
    5.9115    5.7289   -0.8011 H   0  0  0  0  0  0  0  0  0  0  0  0
    7.9862    1.7607    0.1427 H   0  0  0  0  0  0  0  0  0  0  0  0
    7.0336   -0.4297    0.7662 H   0  0  0  0  0  0  0  0  0  0  0  0
  1  2  2  0  0  0  0
  2  3  1  0  0  0  0
  2 17  1  0  0  0  0
  3  4  1  0  0  0  0
  3 28  1  0  0  0  0
  4  5  2  0  0  0  0
  4 15  1  0  0  0  0
  5  6  1  0  0  0  0
  5 29  1  0  0  0  0
  6  7  2  0  0  0  0
  6 30  1  0  0  0  0
  7  8  1  0  0  0  0
  7 31  1  0  0  0  0
  8  9  1  0  0  0  0
  8 15  1  0  0  0  0
  9 10  2  0  0  0  0
  9 14  1  0  0  0  0
 10 11  1  0  0  0  0
 10 32  1  0  0  0  0
 11 12  2  0  0  0  0
 11 33  1  0  0  0  0
 12 13  1  0  0  0  0
 12 34  1  0  0  0  0
 13 14  2  0  0  0  0
 13 35  1  0  0  0  0
 14 36  1  0  0  0  0
 15 16  2  0  0  0  0
 17 18  2  0  0  0  0
 17 27  1  0  0  0  0
 18 19  1  0  0  0  0
 18 20  1  0  0  0  0
 20 21  2  0  0  0  0
 20 25  1  0  0  0  0
 21 22  1  0  0  0  0
 21 37  1  0  0  0  0
 22 23  2  0  0  0  0
 22 38  1  0  0  0  0
 23 24  1  0  0  0  0
 23 39  1  0  0  0  0
 24 25  2  0  0  0  0
 25 26  1  0  0  0  0
 26 27  2  0  0  0  0
 26 40  1  0  0  0  0
 27 41  1  0  0  0  0
M  END
$$$$
