
 OpenBabel01122422393D

 56 59  0  0  1  0  0  0  0  0999 V2000
    1.4119   -0.2970   -0.9424 O   0  0  0  0  0  0  0  0  0  0  0  0
    2.4150   -0.2847   -0.2468 C   0  0  0  0  0  0  0  0  0  0  0  0
    2.6573    0.6873    0.9039 C   0  0  0  0  0  0  0  0  0  0  0  0
    2.3403    0.1134    2.2802 C   0  0  0  0  0  0  0  0  0  0  0  0
    1.1517   -0.6184    2.4590 C   0  0  0  0  0  0  0  0  0  0  0  0
    0.8587   -1.2345    3.6779 C   0  0  0  0  0  0  0  0  0  0  0  0
    1.7504   -1.1303    4.7348 C   0  0  0  0  0  0  0  0  0  0  0  0
    2.9007   -0.3556    4.5972 C   0  0  0  0  0  0  0  0  0  0  0  0
    3.1806    0.3157    3.3941 C   0  0  0  0  0  0  0  0  0  0  0  0
    4.2470    1.1823    3.2563 O   0  0  0  0  0  0  0  0  0  0  0  0
    4.7846    1.6812    4.4948 C   0  0  0  0  0  0  0  0  0  0  0  0
    5.6772    2.8876    4.3161 C   0  0  0  0  0  0  0  0  0  0  0  0
    5.7382    3.8617    5.3246 C   0  0  0  0  0  0  0  0  0  0  0  0
    6.6034    4.9361    5.1710 C   0  0  0  0  0  0  0  0  0  0  0  0
    7.4129    5.0963    4.1050 N   0  0  0  0  0  0  0  0  0  0  0  0
    7.3564    4.1373    3.1561 C   0  0  0  0  0  0  0  0  0  0  0  0
    6.5252    3.0277    3.2176 C   0  0  0  0  0  0  0  0  0  0  0  0
    3.4617   -1.1752   -0.4253 N   0  0  0  0  0  0  0  0  0  0  0  0
    3.3837   -2.3478   -1.2881 C   0  0  3  0  0  0  0  0  0  0  0  0
    3.7195   -2.0455   -2.7573 C   0  0  0  0  0  0  0  0  0  0  0  0
    5.1291   -1.7876   -3.2283 C   0  0  0  0  0  0  0  0  0  0  0  0
    6.1200   -1.0398   -2.6021 C   0  0  0  0  0  0  0  0  0  0  0  0
    7.3643   -0.8549   -3.1151 N   0  0  0  0  0  0  0  0  0  0  0  0
    7.7338   -1.5535   -4.2146 C   0  0  0  0  0  0  0  0  0  0  0  0
    9.0024   -1.4995   -4.7996 C   0  0  0  0  0  0  0  0  0  0  0  0
    9.3999   -2.3894   -5.8121 C   0  0  0  0  0  0  0  0  0  0  0  0
    8.5280   -3.3805   -6.2476 C   0  0  0  0  0  0  0  0  0  0  0  0
    7.2216   -3.3617   -5.7950 C   0  0  0  0  0  0  0  0  0  0  0  0
    6.8157   -2.4260   -4.8358 C   0  0  0  0  0  0  0  0  0  0  0  0
    5.4910   -2.3546   -4.4442 C   0  0  0  0  0  0  0  0  0  0  0  0
    4.2435   -3.4321   -0.6201 C   0  0  0  0  0  0  0  0  0  0  0  0
    4.8156   -3.2494    0.4512 O   0  0  0  0  0  0  0  0  0  0  0  0
    4.2638   -4.6310   -1.2276 O   0  0  0  0  0  0  0  0  0  0  0  0
    2.0755    1.6013    0.7347 H   0  0  0  0  0  0  0  0  0  0  0  0
    3.7192    0.9737    0.8542 H   0  0  0  0  0  0  0  0  0  0  0  0
    0.4348   -0.7217    1.6448 H   0  0  0  0  0  0  0  0  0  0  0  0
   -0.0578   -1.8072    3.7957 H   0  0  0  0  0  0  0  0  0  0  0  0
    1.5482   -1.6376    5.6765 H   0  0  0  0  0  0  0  0  0  0  0  0
    3.5592   -0.2965    5.4561 H   0  0  0  0  0  0  0  0  0  0  0  0
    5.3853    0.8963    4.9710 H   0  0  0  0  0  0  0  0  0  0  0  0
    3.9610    1.9778    5.1582 H   0  0  0  0  0  0  0  0  0  0  0  0
    5.1297    3.7920    6.2199 H   0  0  0  0  0  0  0  0  0  0  0  0
    6.6722    5.7126    5.9271 H   0  0  0  0  0  0  0  0  0  0  0  0
    8.0278    4.2844    2.3136 H   0  0  0  0  0  0  0  0  0  0  0  0
    6.5465    2.2874    2.4259 H   0  0  0  0  0  0  0  0  0  0  0  0
    4.0692   -1.2990    0.3965 H   0  0  0  0  0  0  0  0  0  0  0  0
    2.3503   -2.7079   -1.2444 H   0  0  0  0  0  0  0  0  0  0  0  0
    3.0895   -1.2301   -3.1309 H   0  0  0  0  0  0  0  0  0  0  0  0
    3.3883   -2.9440   -3.3041 H   0  0  0  0  0  0  0  0  0  0  0  0
    5.9451   -0.5396   -1.6491 H   0  0  0  0  0  0  0  0  0  0  0  0
    9.7084   -0.7467   -4.4518 H   0  0  0  0  0  0  0  0  0  0  0  0
   10.3977   -2.3306   -6.2364 H   0  0  0  0  0  0  0  0  0  0  0  0
    8.8545   -4.1492   -6.9430 H   0  0  0  0  0  0  0  0  0  0  0  0
    6.5257   -4.1312   -6.1256 H   0  0  0  0  0  0  0  0  0  0  0  0
    4.7285   -2.7718   -5.1030 H   0  0  0  0  0  0  0  0  0  0  0  0
    3.7301   -4.7166   -2.0394 H   0  0  0  0  0  0  0  0  0  0  0  0
  1  2  2  0  0  0  0
  2  3  1  0  0  0  0
  2 18  1  0  0  0  0
  3  4  1  0  0  0  0
  3 34  1  0  0  0  0
  3 35  1  0  0  0  0
  4  5  2  0  0  0  0
  4  9  1  0  0  0  0
  5  6  1  0  0  0  0
  5 36  1  0  0  0  0
  6  7  2  0  0  0  0
  6 37  1  0  0  0  0
  7  8  1  0  0  0  0
  7 38  1  0  0  0  0
  8  9  2  0  0  0  0
  8 39  1  0  0  0  0
  9 10  1  0  0  0  0
 10 11  1  0  0  0  0
 11 12  1  0  0  0  0
 11 40  1  0  0  0  0
 11 41  1  0  0  0  0
 12 13  2  0  0  0  0
 12 17  1  0  0  0  0
 13 14  1  0  0  0  0
 13 42  1  0  0  0  0
 14 15  2  0  0  0  0
 14 43  1  0  0  0  0
 15 16  1  0  0  0  0
 16 17  2  0  0  0  0
 16 44  1  0  0  0  0
 17 45  1  0  0  0  0
 18 19  1  0  0  0  0
 18 46  1  0  0  0  0
 19 20  1  0  0  0  0
 19 31  1  0  0  0  0
 19 47  1  0  0  0  0
 20 21  1  0  0  0  0
 20 48  1  0  0  0  0
 20 49  1  0  0  0  0
 21 22  2  0  0  0  0
 21 30  1  0  0  0  0
 22 23  1  0  0  0  0
 22 50  1  0  0  0  0
 23 24  2  0  0  0  0
 24 25  1  0  0  0  0
 24 29  1  0  0  0  0
 25 26  2  0  0  0  0
 25 51  1  0  0  0  0
 26 27  1  0  0  0  0
 26 52  1  0  0  0  0
 27 28  2  0  0  0  0
 27 53  1  0  0  0  0
 28 29  1  0  0  0  0
 28 54  1  0  0  0  0
 29 30  2  0  0  0  0
 30 55  1  0  0  0  0
 31 32  2  0  0  0  0
 31 33  1  0  0  0  0
 33 56  1  0  0  0  0
M  END
$$$$
