
 OpenBabel01122422393D

 47 50  0  0  1  0  0  0  0  0999 V2000
    3.0118    2.2288    0.0850 O   0  0  0  0  0  0  0  0  0  0  0  0
    3.3426    1.0456    0.0434 C   0  0  0  0  0  0  0  0  0  0  0  0
    3.0275    0.1740    1.0777 N   0  0  0  0  0  0  0  0  0  0  0  0
    2.3953    0.7125    2.3019 C   0  0  3  0  0  0  0  0  0  0  0  0
    1.3599   -0.2702    2.8923 C   0  0  0  0  0  0  0  0  0  0  0  0
    0.7661   -0.1285    3.9555 O   0  0  0  0  0  0  0  0  0  0  0  0
    1.1193   -1.3428    2.0886 O   0  0  0  0  0  0  0  0  0  0  0  0
    3.4609    1.1561    3.2920 C   0  0  0  0  0  0  0  0  0  0  0  0
    3.9158    0.3193    4.3180 C   0  0  0  0  0  0  0  0  0  0  0  0
    4.9174    0.7491    5.1826 C   0  0  0  0  0  0  0  0  0  0  0  0
    5.5122    1.9997    5.0023 C   0  0  0  0  0  0  0  0  0  0  0  0
    5.1248    2.8532    3.9563 C   0  0  0  0  0  0  0  0  0  0  0  0
    5.8572    4.1108    3.6818 C   0  0  0  0  0  0  0  0  0  0  0  0
    7.2534    4.1636    3.8174 C   0  0  0  0  0  0  0  0  0  0  0  0
    7.9319    5.3335    3.5137 C   0  0  0  0  0  0  0  0  0  0  0  0
    7.3288    6.4555    3.0810 N   0  0  0  0  0  0  0  0  0  0  0  0
    5.9887    6.4004    2.9481 C   0  0  0  0  0  0  0  0  0  0  0  0
    5.2224    5.2755    3.2326 C   0  0  0  0  0  0  0  0  0  0  0  0
    4.0659    2.4231    3.1374 C   0  0  0  0  0  0  0  0  0  0  0  0
    4.0792    0.4950   -1.0767 C   0  0  0  0  0  0  0  0  0  0  0  0
    4.6501    1.1587   -2.1443 C   0  0  0  0  0  0  0  0  0  0  0  0
    5.1431    0.1767   -3.0243 C   0  0  0  0  0  0  0  0  0  0  0  0
    4.8732   -1.0486   -2.4454 C   0  0  0  0  0  0  0  0  0  0  0  0
    5.1513   -2.4134   -2.8815 C   0  0  0  0  0  0  0  0  0  0  0  0
    4.7361   -3.5384   -2.1811 C   0  0  0  0  0  0  0  0  0  0  0  0
    5.0954   -4.7962   -2.6637 C   0  0  0  0  0  0  0  0  0  0  0  0
    5.8472   -4.8944   -3.8294 C   0  0  0  0  0  0  0  0  0  0  0  0
    6.2014   -3.7249   -4.4772 C   0  0  0  0  0  0  0  0  0  0  0  0
    5.8709   -2.4932   -4.0313 N   0  0  0  0  0  0  0  0  0  0  0  0
    4.2317   -0.8604   -1.2399 O   0  0  0  0  0  0  0  0  0  0  0  0
    3.6304   -0.6380    1.1556 H   0  0  0  0  0  0  0  0  0  0  0  0
    1.7922    1.5852    2.0174 H   0  0  0  0  0  0  0  0  0  0  0  0
    1.5990   -1.2419    1.2401 H   0  0  0  0  0  0  0  0  0  0  0  0
    3.4867   -0.6684    4.4759 H   0  0  0  0  0  0  0  0  0  0  0  0
    5.2499    0.1050    5.9922 H   0  0  0  0  0  0  0  0  0  0  0  0
    6.2988    2.2978    5.6926 H   0  0  0  0  0  0  0  0  0  0  0  0
    7.8228    3.2944    4.1328 H   0  0  0  0  0  0  0  0  0  0  0  0
    9.0125    5.3894    3.6075 H   0  0  0  0  0  0  0  0  0  0  0  0
    5.5246    7.3148    2.5869 H   0  0  0  0  0  0  0  0  0  0  0  0
    4.1461    5.3239    3.0990 H   0  0  0  0  0  0  0  0  0  0  0  0
    3.7255    3.0700    2.3287 H   0  0  0  0  0  0  0  0  0  0  0  0
    4.6783    2.2333   -2.2740 H   0  0  0  0  0  0  0  0  0  0  0  0
    5.6324    0.3223   -3.9793 H   0  0  0  0  0  0  0  0  0  0  0  0
    4.1505   -3.4485   -1.2742 H   0  0  0  0  0  0  0  0  0  0  0  0
    4.7954   -5.6937   -2.1305 H   0  0  0  0  0  0  0  0  0  0  0  0
    6.1512   -5.8586   -4.2226 H   0  0  0  0  0  0  0  0  0  0  0  0
    6.7825   -3.7460   -5.3955 H   0  0  0  0  0  0  0  0  0  0  0  0
  1  2  2  0  0  0  0
  2  3  1  0  0  0  0
  2 20  1  0  0  0  0
  3  4  1  0  0  0  0
  3 31  1  0  0  0  0
  4  5  1  0  0  0  0
  4  8  1  0  0  0  0
  4 32  1  0  0  0  0
  5  6  2  0  0  0  0
  5  7  1  0  0  0  0
  7 33  1  0  0  0  0
  8  9  2  0  0  0  0
  8 19  1  0  0  0  0
  9 10  1  0  0  0  0
  9 34  1  0  0  0  0
 10 11  2  0  0  0  0
 10 35  1  0  0  0  0
 11 12  1  0  0  0  0
 11 36  1  0  0  0  0
 12 13  1  0  0  0  0
 12 19  2  0  0  0  0
 13 14  2  0  0  0  0
 13 18  1  0  0  0  0
 14 15  1  0  0  0  0
 14 37  1  0  0  0  0
 15 16  2  0  0  0  0
 15 38  1  0  0  0  0
 16 17  1  0  0  0  0
 17 18  2  0  0  0  0
 17 39  1  0  0  0  0
 18 40  1  0  0  0  0
 19 41  1  0  0  0  0
 20 21  2  0  0  0  0
 20 30  1  0  0  0  0
 21 22  1  0  0  0  0
 21 42  1  0  0  0  0
 22 23  2  0  0  0  0
 22 43  1  0  0  0  0
 23 24  1  0  0  0  0
 23 30  1  0  0  0  0
 24 25  2  0  0  0  0
 24 29  1  0  0  0  0
 25 26  1  0  0  0  0
 25 44  1  0  0  0  0
 26 27  2  0  0  0  0
 26 45  1  0  0  0  0
 27 28  1  0  0  0  0
 27 46  1  0  0  0  0
 28 29  2  0  0  0  0
 28 47  1  0  0  0  0
M  END
$$$$
