
 OpenBabel01122422393D

 44 47  0  0  0  0  0  0  0  0999 V2000
    4.8292    1.7730   -2.5931 N   0  0  0  0  0  0  0  0  0  0  0  0
    4.4308    1.0351   -1.5162 C   0  0  0  0  0  0  0  0  0  0  0  0
    3.8193    1.5442   -0.5799 O   0  0  0  0  0  0  0  0  0  0  0  0
    4.7373   -0.4132   -1.5375 C   0  0  0  0  0  0  0  0  0  0  0  0
    5.7893   -0.9471   -2.2699 C   0  0  0  0  0  0  0  0  0  0  0  0
    6.0188   -2.3367   -2.2961 C   0  0  0  0  0  0  0  0  0  0  0  0
    5.1982   -3.1985   -1.5432 C   0  0  0  0  0  0  0  0  0  0  0  0
    5.4757   -4.6650   -1.5326 C   0  0  0  0  0  0  0  0  0  0  0  0
    6.4217   -5.0273   -0.4869 N   0  0  0  0  0  0  0  0  0  0  0  0
    5.8828   -5.5527    0.6695 N   0  0  0  0  0  0  0  0  0  0  0  0
    6.7204   -5.9029    1.5910 C   0  0  0  0  0  0  0  0  0  0  0  0
    6.2869   -6.7091    2.7417 C   0  0  0  0  0  0  0  0  0  0  0  0
    6.6550   -6.2770    4.0261 C   0  0  0  0  0  0  0  0  0  0  0  0
    6.4045   -7.0918    5.1124 C   0  0  0  0  0  0  0  0  0  0  0  0
    5.7261   -8.2817    4.8981 C   0  0  0  0  0  0  0  0  0  0  0  0
    5.6947   -8.8618    3.6272 C   0  0  0  0  0  0  0  0  0  0  0  0
    5.6287  -10.2567    3.4741 C   0  0  0  0  0  0  0  0  0  0  0  0
    5.6473  -10.8346    2.2058 C   0  0  0  0  0  0  0  0  0  0  0  0
    5.5871  -10.0201    1.0835 C   0  0  0  0  0  0  0  0  0  0  0  0
    5.6646   -8.6351    1.2301 C   0  0  0  0  0  0  0  0  0  0  0  0
    5.8531   -8.0408    2.5033 C   0  0  0  0  0  0  0  0  0  0  0  0
    8.1760   -5.6767    1.5533 C   0  0  0  0  0  0  0  0  0  0  0  0
    8.6747   -5.2572    0.3973 C   0  0  0  0  0  0  0  0  0  0  0  0
    7.7854   -4.9755   -0.7446 C   0  0  0  0  0  0  0  0  0  0  0  0
    8.2953   -4.6904   -1.8255 O   0  0  0  0  0  0  0  0  0  0  0  0
    4.1697   -2.6344   -0.7986 C   0  0  0  0  0  0  0  0  0  0  0  0
    3.3610   -3.4353   -0.0915 F   0  0  0  0  0  0  0  0  0  0  0  0
    3.9319   -1.2660   -0.7794 C   0  0  0  0  0  0  0  0  0  0  0  0
    4.5067    2.7327   -2.6243 H   0  0  0  0  0  0  0  0  0  0  0  0
    5.1099    1.3401   -3.4630 H   0  0  0  0  0  0  0  0  0  0  0  0
    6.4781   -0.2985   -2.8303 H   0  0  0  0  0  0  0  0  0  0  0  0
    6.8760   -2.7142   -2.8425 H   0  0  0  0  0  0  0  0  0  0  0  0
    5.8832   -4.9740   -2.5068 H   0  0  0  0  0  0  0  0  0  0  0  0
    4.5462   -5.2273   -1.3997 H   0  0  0  0  0  0  0  0  0  0  0  0
    7.1344   -5.3140    4.1806 H   0  0  0  0  0  0  0  0  0  0  0  0
    6.7173   -6.8081    6.1136 H   0  0  0  0  0  0  0  0  0  0  0  0
    5.1487   -8.7182    5.7078 H   0  0  0  0  0  0  0  0  0  0  0  0
    5.6904  -10.9041    4.3475 H   0  0  0  0  0  0  0  0  0  0  0  0
    5.7122  -11.9135    2.0949 H   0  0  0  0  0  0  0  0  0  0  0  0
    5.5335  -10.4563    0.0898 H   0  0  0  0  0  0  0  0  0  0  0  0
    5.6331   -8.0249    0.3301 H   0  0  0  0  0  0  0  0  0  0  0  0
    8.7960   -5.9046    2.4108 H   0  0  0  0  0  0  0  0  0  0  0  0
    9.7348   -5.1142    0.2517 H   0  0  0  0  0  0  0  0  0  0  0  0
    3.1085   -0.8774   -0.1882 H   0  0  0  0  0  0  0  0  0  0  0  0
  1  2  1  0  0  0  0
  1 29  1  0  0  0  0
  1 30  1  0  0  0  0
  2  3  2  0  0  0  0
  2  4  1  0  0  0  0
  4  5  2  0  0  0  0
  4 28  1  0  0  0  0
  5  6  1  0  0  0  0
  5 31  1  0  0  0  0
  6  7  2  0  0  0  0
  6 32  1  0  0  0  0
  7  8  1  0  0  0  0
  7 26  1  0  0  0  0
  8  9  1  0  0  0  0
  8 33  1  0  0  0  0
  8 34  1  0  0  0  0
  9 10  1  0  0  0  0
  9 24  1  0  0  0  0
 10 11  2  0  0  0  0
 11 12  1  0  0  0  0
 11 22  1  0  0  0  0
 12 13  2  0  0  0  0
 12 21  1  0  0  0  0
 13 14  1  0  0  0  0
 13 35  1  0  0  0  0
 14 15  2  0  0  0  0
 14 36  1  0  0  0  0
 15 16  1  0  0  0  0
 15 37  1  0  0  0  0
 16 17  2  0  0  0  0
 16 21  1  0  0  0  0
 17 18  1  0  0  0  0
 17 38  1  0  0  0  0
 18 19  2  0  0  0  0
 18 39  1  0  0  0  0
 19 20  1  0  0  0  0
 19 40  1  0  0  0  0
 20 21  2  0  0  0  0
 20 41  1  0  0  0  0
 22 23  2  0  0  0  0
 22 42  1  0  0  0  0
 23 24  1  0  0  0  0
 23 43  1  0  0  0  0
 24 25  2  0  0  0  0
 26 27  1  0  0  0  0
 26 28  2  0  0  0  0
 28 44  1  0  0  0  0
M  END
$$$$
