
 OpenBabel01122422393D

 48 51  0  0  0  0  0  0  0  0999 V2000
    1.5983    0.0328   -0.8167 C   0  0  0  0  0  0  0  0  0  0  0  0
    2.8373    0.2355   -0.1497 O   0  0  0  0  0  0  0  0  0  0  0  0
    3.3569   -0.8364    0.5264 C   0  0  0  0  0  0  0  0  0  0  0  0
    2.7615   -2.0901    0.6519 C   0  0  0  0  0  0  0  0  0  0  0  0
    3.3816   -3.1170    1.3854 C   0  0  0  0  0  0  0  0  0  0  0  0
    4.6328   -2.8895    1.9974 C   0  0  0  0  0  0  0  0  0  0  0  0
    5.5170   -3.6585    2.8279 C   0  0  0  0  0  0  0  0  0  0  0  0
    5.4203   -5.0159    3.3640 C   0  0  0  0  0  0  0  0  0  0  0  0
    5.9310   -5.2775    4.4489 O   0  0  0  0  0  0  0  0  0  0  0  0
    4.8090   -5.9435    2.5366 N   0  0  0  0  0  0  0  0  0  0  0  0
    4.6579   -7.3205    2.8342 C   0  0  0  0  0  0  0  0  0  0  0  0
    4.8051   -7.8633    4.1087 C   0  0  0  0  0  0  0  0  0  0  0  0
    4.7113   -9.2449    4.3045 C   0  0  0  0  0  0  0  0  0  0  0  0
    4.4563  -10.0695    3.2166 C   0  0  0  0  0  0  0  0  0  0  0  0
    4.4461  -11.4565    3.4414 N   0  0  0  0  0  0  0  0  0  0  0  0
    4.2064  -12.4093    2.4717 C   0  0  0  0  0  0  0  0  0  0  0  0
    3.8404  -12.2131    1.3197 O   0  0  0  0  0  0  0  0  0  0  0  0
    4.3908  -13.8282    2.8964 C   0  0  0  0  0  0  0  0  0  0  0  0
    3.6232  -14.8087    2.2503 C   0  0  0  0  0  0  0  0  0  0  0  0
    3.8160  -16.1505    2.5601 C   0  0  0  0  0  0  0  0  0  0  0  0
    3.1033  -17.1325    1.9380 O   0  0  0  0  0  0  0  0  0  0  0  0
    4.7584  -16.5345    3.5064 C   0  0  0  0  0  0  0  0  0  0  0  0
    5.5270  -15.5650    4.1510 C   0  0  0  0  0  0  0  0  0  0  0  0
    5.3492  -14.2115    3.8463 C   0  0  0  0  0  0  0  0  0  0  0  0
    4.2646   -9.5632    1.9868 N   0  0  0  0  0  0  0  0  0  0  0  0
    4.3600   -8.2202    1.8194 C   0  0  0  0  0  0  0  0  0  0  0  0
    6.5743   -2.8212    3.1514 C   0  0  0  0  0  0  0  0  0  0  0  0
    6.3795   -1.6101    2.5578 N   0  0  0  0  0  0  0  0  0  0  0  0
    5.1984   -1.6179    1.8573 C   0  0  0  0  0  0  0  0  0  0  0  0
    4.5891   -0.5847    1.1349 C   0  0  0  0  0  0  0  0  0  0  0  0
    1.3276    0.9686   -1.3148 H   0  0  0  0  0  0  0  0  0  0  0  0
    0.8023   -0.2074   -0.1042 H   0  0  0  0  0  0  0  0  0  0  0  0
    1.6889   -0.7409   -1.5861 H   0  0  0  0  0  0  0  0  0  0  0  0
    1.7971   -2.3058    0.2033 H   0  0  0  0  0  0  0  0  0  0  0  0
    2.8700   -4.0690    1.4928 H   0  0  0  0  0  0  0  0  0  0  0  0
    4.6266   -5.6494    1.5859 H   0  0  0  0  0  0  0  0  0  0  0  0
    4.9955   -7.2419    4.9784 H   0  0  0  0  0  0  0  0  0  0  0  0
    4.8562   -9.6444    5.3024 H   0  0  0  0  0  0  0  0  0  0  0  0
    4.6132  -11.7599    4.3884 H   0  0  0  0  0  0  0  0  0  0  0  0
    2.8946  -14.5092    1.5012 H   0  0  0  0  0  0  0  0  0  0  0  0
    2.5548  -16.7272    1.2449 H   0  0  0  0  0  0  0  0  0  0  0  0
    4.9069  -17.5888    3.7252 H   0  0  0  0  0  0  0  0  0  0  0  0
    6.2815  -15.8698    4.8723 H   0  0  0  0  0  0  0  0  0  0  0  0
    5.9977  -13.4826    4.3231 H   0  0  0  0  0  0  0  0  0  0  0  0
    4.2109   -7.8988    0.7929 H   0  0  0  0  0  0  0  0  0  0  0  0
    7.4420   -3.0024    3.7734 H   0  0  0  0  0  0  0  0  0  0  0  0
    6.9919   -0.8099    2.6463 H   0  0  0  0  0  0  0  0  0  0  0  0
    5.0503    0.3956    1.0569 H   0  0  0  0  0  0  0  0  0  0  0  0
  1  2  1  0  0  0  0
  1 31  1  0  0  0  0
  1 32  1  0  0  0  0
  1 33  1  0  0  0  0
  2  3  1  0  0  0  0
  3  4  2  0  0  0  0
  3 30  1  0  0  0  0
  4  5  1  0  0  0  0
  4 34  1  0  0  0  0
  5  6  2  0  0  0  0
  5 35  1  0  0  0  0
  6  7  1  0  0  0  0
  6 29  1  0  0  0  0
  7  8  1  0  0  0  0
  7 27  2  0  0  0  0
  8  9  2  0  0  0  0
  8 10  1  0  0  0  0
 10 11  1  0  0  0  0
 10 36  1  0  0  0  0
 11 12  2  0  0  0  0
 11 26  1  0  0  0  0
 12 13  1  0  0  0  0
 12 37  1  0  0  0  0
 13 14  2  0  0  0  0
 13 38  1  0  0  0  0
 14 15  1  0  0  0  0
 14 25  1  0  0  0  0
 15 16  1  0  0  0  0
 15 39  1  0  0  0  0
 16 17  2  0  0  0  0
 16 18  1  0  0  0  0
 18 19  2  0  0  0  0
 18 24  1  0  0  0  0
 19 20  1  0  0  0  0
 19 40  1  0  0  0  0
 20 21  1  0  0  0  0
 20 22  2  0  0  0  0
 21 41  1  0  0  0  0
 22 23  1  0  0  0  0
 22 42  1  0  0  0  0
 23 24  2  0  0  0  0
 23 43  1  0  0  0  0
 24 44  1  0  0  0  0
 25 26  2  0  0  0  0
 26 45  1  0  0  0  0
 27 28  1  0  0  0  0
 27 46  1  0  0  0  0
 28 29  1  0  0  0  0
 28 47  1  0  0  0  0
 29 30  2  0  0  0  0
 30 48  1  0  0  0  0
M  END
$$$$
