
 OpenBabel01122422393D

 48 51  0  0  1  0  0  0  0  0999 V2000
    2.5927   -1.0182    1.1862 O   0  0  0  0  0  0  0  0  0  0  0  0
    2.2653   -0.7581    0.0360 C   0  0  0  0  0  0  0  0  0  0  0  0
    0.9456   -0.6730   -0.3720 N   0  0  0  0  0  0  0  0  0  0  0  0
   -0.1563   -0.9765    0.4622 C   0  0  0  0  0  0  0  0  0  0  0  0
   -0.1214   -1.0705    1.8424 C   0  0  0  0  0  0  0  0  0  0  0  0
   -1.1659   -1.4730    2.5988 N   0  0  0  0  0  0  0  0  0  0  0  0
   -2.2982   -1.8155    1.9468 C   0  0  0  0  0  0  0  0  0  0  0  0
   -3.3917   -2.4501    2.7312 C   0  0  0  0  0  0  0  0  0  0  0  0
   -3.4925   -2.1614    4.0520 N   0  0  0  0  0  0  0  0  0  0  0  0
   -4.4554   -2.7988    4.7393 C   0  0  0  0  0  0  0  0  0  0  0  0
   -5.3124   -3.7109    4.1770 C   0  0  0  0  0  0  0  0  0  0  0  0
   -5.1362   -3.9446    2.8337 C   0  0  0  0  0  0  0  0  0  0  0  0
   -4.1994   -3.3314    2.0914 N   0  0  0  0  0  0  0  0  0  0  0  0
   -2.4555   -1.6868    0.6035 N   0  0  0  0  0  0  0  0  0  0  0  0
   -1.3844   -1.2594   -0.0942 C   0  0  0  0  0  0  0  0  0  0  0  0
    3.1467   -0.5727   -1.0158 N   0  0  0  0  0  0  0  0  0  0  0  0
    4.5515   -0.7242   -0.9424 C   0  0  0  0  0  0  0  0  0  0  0  0
    5.2491   -0.8116    0.2647 C   0  0  0  0  0  0  0  0  0  0  0  0
    6.6383   -1.0207    0.3047 C   0  0  0  0  0  0  0  0  0  0  0  0
    7.3567   -1.1746    1.6386 C   0  0  3  0  0  0  0  0  0  0  0  0
    7.2441    0.0375    2.3922 O   0  0  0  0  0  0  0  0  0  0  0  0
    6.8703   -2.3723    2.4460 C   0  0  0  0  0  0  0  0  0  0  0  0
    6.9973   -3.6668    1.9108 C   0  0  0  0  0  0  0  0  0  0  0  0
    6.5100   -4.7794    2.5994 C   0  0  0  0  0  0  0  0  0  0  0  0
    5.8982   -4.6188    3.8396 C   0  0  0  0  0  0  0  0  0  0  0  0
    5.7858   -3.3479    4.3976 C   0  0  0  0  0  0  0  0  0  0  0  0
    6.2712   -2.2334    3.7090 C   0  0  0  0  0  0  0  0  0  0  0  0
    7.3305   -1.1276   -0.9070 C   0  0  0  0  0  0  0  0  0  0  0  0
    6.6472   -1.0288   -2.1208 C   0  0  0  0  0  0  0  0  0  0  0  0
    5.2653   -0.8190   -2.1395 C   0  0  0  0  0  0  0  0  0  0  0  0
    0.7689   -0.6246   -1.3636 H   0  0  0  0  0  0  0  0  0  0  0  0
    0.7596   -0.8288    2.4279 H   0  0  0  0  0  0  0  0  0  0  0  0
   -4.5147   -2.5462    5.7940 H   0  0  0  0  0  0  0  0  0  0  0  0
   -6.0758   -4.2159    4.7517 H   0  0  0  0  0  0  0  0  0  0  0  0
   -5.7568   -4.6555    2.2971 H   0  0  0  0  0  0  0  0  0  0  0  0
   -1.5521   -1.1993   -1.1674 H   0  0  0  0  0  0  0  0  0  0  0  0
    2.7593   -0.4492   -1.9375 H   0  0  0  0  0  0  0  0  0  0  0  0
    4.7301   -0.7333    1.2147 H   0  0  0  0  0  0  0  0  0  0  0  0
    8.4315   -1.3130    1.4672 H   0  0  0  0  0  0  0  0  0  0  0  0
    6.3514    0.3858    2.2408 H   0  0  0  0  0  0  0  0  0  0  0  0
    7.4608   -3.8135    0.9377 H   0  0  0  0  0  0  0  0  0  0  0  0
    6.5984   -5.7699    2.1617 H   0  0  0  0  0  0  0  0  0  0  0  0
    5.5056   -5.4820    4.3698 H   0  0  0  0  0  0  0  0  0  0  0  0
    5.3108   -3.2202    5.3670 H   0  0  0  0  0  0  0  0  0  0  0  0
    6.1664   -1.2530    4.1682 H   0  0  0  0  0  0  0  0  0  0  0  0
    8.4045   -1.3013   -0.9133 H   0  0  0  0  0  0  0  0  0  0  0  0
    7.1919   -1.1316   -3.0565 H   0  0  0  0  0  0  0  0  0  0  0  0
    4.7592   -0.7700   -3.0993 H   0  0  0  0  0  0  0  0  0  0  0  0
  1  2  2  0  0  0  0
  2  3  1  0  0  0  0
  2 16  1  0  0  0  0
  3  4  1  0  0  0  0
  3 31  1  0  0  0  0
  4  5  2  0  0  0  0
  4 15  1  0  0  0  0
  5  6  1  0  0  0  0
  5 32  1  0  0  0  0
  6  7  2  0  0  0  0
  7  8  1  0  0  0  0
  7 14  1  0  0  0  0
  8  9  2  0  0  0  0
  8 13  1  0  0  0  0
  9 10  1  0  0  0  0
 10 11  2  0  0  0  0
 10 33  1  0  0  0  0
 11 12  1  0  0  0  0
 11 34  1  0  0  0  0
 12 13  2  0  0  0  0
 12 35  1  0  0  0  0
 14 15  2  0  0  0  0
 15 36  1  0  0  0  0
 16 17  1  0  0  0  0
 16 37  1  0  0  0  0
 17 18  2  0  0  0  0
 17 30  1  0  0  0  0
 18 19  1  0  0  0  0
 18 38  1  0  0  0  0
 19 20  1  0  0  0  0
 19 28  2  0  0  0  0
 20 21  1  0  0  0  0
 20 22  1  0  0  0  0
 20 39  1  0  0  0  0
 21 40  1  0  0  0  0
 22 23  2  0  0  0  0
 22 27  1  0  0  0  0
 23 24  1  0  0  0  0
 23 41  1  0  0  0  0
 24 25  2  0  0  0  0
 24 42  1  0  0  0  0
 25 26  1  0  0  0  0
 25 43  1  0  0  0  0
 26 27  2  0  0  0  0
 26 44  1  0  0  0  0
 27 45  1  0  0  0  0
 28 29  1  0  0  0  0
 28 46  1  0  0  0  0
 29 30  2  0  0  0  0
 29 47  1  0  0  0  0
 30 48  1  0  0  0  0
M  END
$$$$
