
 OpenBabel01122422393D

 41 44  0  0  0  0  0  0  0  0999 V2000
    3.0263    1.6565   -0.9340 O   0  0  0  0  0  0  0  0  0  0  0  0
    3.8871    0.8319   -0.6468 C   0  0  0  0  0  0  0  0  0  0  0  0
    3.7071   -0.5426   -0.7684 N   0  0  0  0  0  0  0  0  0  0  0  0
    2.6466   -1.3374   -1.2496 C   0  0  0  0  0  0  0  0  0  0  0  0
    1.4707   -1.0055   -1.8550 C   0  0  0  0  0  0  0  0  0  0  0  0
    0.4929   -1.9809   -2.1950 N   0  0  0  0  0  0  0  0  0  0  0  0
   -0.7738   -1.6787   -2.8568 C   0  0  0  0  0  0  0  0  0  0  0  0
   -1.9730   -2.2257   -2.3379 C   0  0  0  0  0  0  0  0  0  0  0  0
   -3.1972   -2.1069   -3.0165 C   0  0  0  0  0  0  0  0  0  0  0  0
   -3.2377   -1.4685   -4.2487 C   0  0  0  0  0  0  0  0  0  0  0  0
   -2.0655   -0.9340   -4.7879 C   0  0  0  0  0  0  0  0  0  0  0  0
   -0.8448   -1.0229   -4.0917 C   0  0  0  0  0  0  0  0  0  0  0  0
    0.7092   -3.3685   -1.9834 C   0  0  0  0  0  0  0  0  0  0  0  0
   -0.0334   -4.3058   -2.2525 O   0  0  0  0  0  0  0  0  0  0  0  0
    2.0307   -3.7033   -1.3948 C   0  0  0  0  0  0  0  0  0  0  0  0
    2.9087   -2.7509   -1.0655 C   0  0  0  0  0  0  0  0  0  0  0  0
    5.2988    1.3231   -0.2296 C   0  0  0  0  0  0  0  0  0  0  0  0
    6.3711    0.5261    0.2667 C   0  0  0  0  0  0  0  0  0  0  0  0
    6.7286    0.3564    1.6328 C   0  0  0  0  0  0  0  0  0  0  0  0
    7.9335   -0.2892    2.0141 C   0  0  0  0  0  0  0  0  0  0  0  0
    8.7283   -0.8977    1.0502 C   0  0  0  0  0  0  0  0  0  0  0  0
    8.4745   -0.5841   -0.2677 C   0  0  0  0  0  0  0  0  0  0  0  0
    9.3056   -1.0152   -1.2242 F   0  0  0  0  0  0  0  0  0  0  0  0
    7.4792    0.3526   -0.5553 C   0  0  0  0  0  0  0  0  0  0  0  0
    7.7687    1.4213   -1.3866 C   0  0  0  0  0  0  0  0  0  0  0  0
    6.9584    2.4953   -1.5361 N   0  0  0  0  0  0  0  0  0  0  0  0
    5.7092    2.3855   -1.0218 C   0  0  0  0  0  0  0  0  0  0  0  0
    4.5065   -1.0781   -0.4603 H   0  0  0  0  0  0  0  0  0  0  0  0
    1.1916    0.0230   -2.0552 H   0  0  0  0  0  0  0  0  0  0  0  0
   -1.9631   -2.7734   -1.3981 H   0  0  0  0  0  0  0  0  0  0  0  0
   -4.0958   -2.5471   -2.5894 H   0  0  0  0  0  0  0  0  0  0  0  0
   -4.1771   -1.4059   -4.7983 H   0  0  0  0  0  0  0  0  0  0  0  0
   -2.0973   -0.4839   -5.7749 H   0  0  0  0  0  0  0  0  0  0  0  0
    0.0580   -0.6645   -4.5737 H   0  0  0  0  0  0  0  0  0  0  0  0
    2.2397   -4.7551   -1.2609 H   0  0  0  0  0  0  0  0  0  0  0  0
    3.8591   -3.0690   -0.6485 H   0  0  0  0  0  0  0  0  0  0  0  0
    6.1779    0.8895    2.4080 H   0  0  0  0  0  0  0  0  0  0  0  0
    8.2756   -0.2720    3.0501 H   0  0  0  0  0  0  0  0  0  0  0  0
    9.6153   -1.4713    1.3065 H   0  0  0  0  0  0  0  0  0  0  0  0
    8.7630    1.5323   -1.8122 H   0  0  0  0  0  0  0  0  0  0  0  0
    5.0139    3.1455   -1.3638 H   0  0  0  0  0  0  0  0  0  0  0  0
  1  2  2  0  0  0  0
  2  3  1  0  0  0  0
  2 17  1  0  0  0  0
  3  4  1  0  0  0  0
  3 28  1  0  0  0  0
  4  5  2  0  0  0  0
  4 16  1  0  0  0  0
  5  6  1  0  0  0  0
  5 29  1  0  0  0  0
  6  7  1  0  0  0  0
  6 13  1  0  0  0  0
  7  8  2  0  0  0  0
  7 12  1  0  0  0  0
  8  9  1  0  0  0  0
  8 30  1  0  0  0  0
  9 10  2  0  0  0  0
  9 31  1  0  0  0  0
 10 11  1  0  0  0  0
 10 32  1  0  0  0  0
 11 12  2  0  0  0  0
 11 33  1  0  0  0  0
 12 34  1  0  0  0  0
 13 14  2  0  0  0  0
 13 15  1  0  0  0  0
 15 16  2  0  0  0  0
 15 35  1  0  0  0  0
 16 36  1  0  0  0  0
 17 18  2  0  0  0  0
 17 27  1  0  0  0  0
 18 19  1  0  0  0  0
 18 24  1  0  0  0  0
 19 20  2  0  0  0  0
 19 37  1  0  0  0  0
 20 21  1  0  0  0  0
 20 38  1  0  0  0  0
 21 22  2  0  0  0  0
 21 39  1  0  0  0  0
 22 23  1  0  0  0  0
 22 24  1  0  0  0  0
 24 25  2  0  0  0  0
 25 26  1  0  0  0  0
 25 40  1  0  0  0  0
 26 27  2  0  0  0  0
 27 41  1  0  0  0  0
M  END
$$$$
