
 OpenBabel01122422393D

 50 53  0  0  0  0  0  0  0  0999 V2000
    4.6001   -1.3341    7.6674 N   0  0  0  0  0  0  0  0  0  0  0  0
    3.2609   -0.9454    7.2431 C   0  0  0  0  0  0  0  0  0  0  0  0
    3.0183   -1.3379    5.8023 C   0  0  0  0  0  0  0  0  0  0  0  0
    2.5219   -2.6338    5.5646 C   0  0  0  0  0  0  0  0  0  0  0  0
    2.3302   -3.1013    4.2710 C   0  0  0  0  0  0  0  0  0  0  0  0
    2.6440   -2.2871    3.1879 C   0  0  0  0  0  0  0  0  0  0  0  0
    3.1424   -0.9916    3.3823 C   0  0  0  0  0  0  0  0  0  0  0  0
    3.4661   -0.2019    2.2652 C   0  0  0  0  0  0  0  0  0  0  0  0
    3.9568    1.0938    2.4149 C   0  0  0  0  0  0  0  0  0  0  0  0
    4.1281    1.6134    3.6947 C   0  0  0  0  0  0  0  0  0  0  0  0
    4.6744    2.9788    3.9083 C   0  0  0  0  0  0  0  0  0  0  0  0
    5.4062    3.1652    4.8742 O   0  0  0  0  0  0  0  0  0  0  0  0
    4.2382    3.9523    3.0177 N   0  0  0  0  0  0  0  0  0  0  0  0
    4.6180    5.2787    3.0317 C   0  0  0  0  0  0  0  0  0  0  0  0
    5.7361    5.7405    3.6165 C   0  0  0  0  0  0  0  0  0  0  0  0
    6.0338    7.0938    3.6860 N   0  0  0  0  0  0  0  0  0  0  0  0
    7.2654    7.5142    4.3532 C   0  0  0  0  0  0  0  0  0  0  0  0
    8.4317    7.5971    3.3939 C   0  0  0  0  0  0  0  0  0  0  0  0
    8.7169    8.8011    2.7341 C   0  0  0  0  0  0  0  0  0  0  0  0
    9.7516    8.8704    1.8006 C   0  0  0  0  0  0  0  0  0  0  0  0
   10.5098    7.7371    1.5138 C   0  0  0  0  0  0  0  0  0  0  0  0
   10.2447    6.5373    2.1716 C   0  0  0  0  0  0  0  0  0  0  0  0
    9.2121    6.4668    3.1087 C   0  0  0  0  0  0  0  0  0  0  0  0
    5.1841    8.0636    3.1653 C   0  0  0  0  0  0  0  0  0  0  0  0
    5.3549    9.2767    3.2494 O   0  0  0  0  0  0  0  0  0  0  0  0
    3.9799    7.5495    2.4559 C   0  0  0  0  0  0  0  0  0  0  0  0
    3.7384    6.2327    2.3849 C   0  0  0  0  0  0  0  0  0  0  0  0
    3.8328    0.8258    4.8202 C   0  0  0  0  0  0  0  0  0  0  0  0
    3.3309   -0.4914    4.6972 C   0  0  0  0  0  0  0  0  0  0  0  0
    4.7817   -0.9635    8.5975 H   0  0  0  0  0  0  0  0  0  0  0  0
    5.2843   -0.9023    7.0469 H   0  0  0  0  0  0  0  0  0  0  0  0
    3.1022    0.1258    7.3987 H   0  0  0  0  0  0  0  0  0  0  0  0
    2.5273   -1.4441    7.8885 H   0  0  0  0  0  0  0  0  0  0  0  0
    2.3008   -3.2926    6.4029 H   0  0  0  0  0  0  0  0  0  0  0  0
    1.9526   -4.1075    4.1070 H   0  0  0  0  0  0  0  0  0  0  0  0
    2.5049   -2.6817    2.1840 H   0  0  0  0  0  0  0  0  0  0  0  0
    3.3523   -0.6033    1.2597 H   0  0  0  0  0  0  0  0  0  0  0  0
    4.2344    1.6632    1.5327 H   0  0  0  0  0  0  0  0  0  0  0  0
    3.4490    3.7107    2.4313 H   0  0  0  0  0  0  0  0  0  0  0  0
    6.4604    5.0755    4.0743 H   0  0  0  0  0  0  0  0  0  0  0  0
    7.4964    6.8166    5.1691 H   0  0  0  0  0  0  0  0  0  0  0  0
    7.1091    8.4892    4.8310 H   0  0  0  0  0  0  0  0  0  0  0  0
    8.1201    9.6894    2.9363 H   0  0  0  0  0  0  0  0  0  0  0  0
    9.9566    9.8075    1.2898 H   0  0  0  0  0  0  0  0  0  0  0  0
   11.3043    7.7886    0.7743 H   0  0  0  0  0  0  0  0  0  0  0  0
   10.8373    5.6538    1.9489 H   0  0  0  0  0  0  0  0  0  0  0  0
    9.0139    5.5209    3.6077 H   0  0  0  0  0  0  0  0  0  0  0  0
    3.3279    8.2928    2.0159 H   0  0  0  0  0  0  0  0  0  0  0  0
    2.8553    5.8791    1.8645 H   0  0  0  0  0  0  0  0  0  0  0  0
    4.0049    1.2625    5.8017 H   0  0  0  0  0  0  0  0  0  0  0  0
  1  2  1  0  0  0  0
  1 30  1  0  0  0  0
  1 31  1  0  0  0  0
  2  3  1  0  0  0  0
  2 32  1  0  0  0  0
  2 33  1  0  0  0  0
  3  4  2  0  0  0  0
  3 29  1  0  0  0  0
  4  5  1  0  0  0  0
  4 34  1  0  0  0  0
  5  6  2  0  0  0  0
  5 35  1  0  0  0  0
  6  7  1  0  0  0  0
  6 36  1  0  0  0  0
  7  8  2  0  0  0  0
  7 29  1  0  0  0  0
  8  9  1  0  0  0  0
  8 37  1  0  0  0  0
  9 10  2  0  0  0  0
  9 38  1  0  0  0  0
 10 11  1  0  0  0  0
 10 28  1  0  0  0  0
 11 12  2  0  0  0  0
 11 13  1  0  0  0  0
 13 14  1  0  0  0  0
 13 39  1  0  0  0  0
 14 15  2  0  0  0  0
 14 27  1  0  0  0  0
 15 16  1  0  0  0  0
 15 40  1  0  0  0  0
 16 17  1  0  0  0  0
 16 24  1  0  0  0  0
 17 18  1  0  0  0  0
 17 41  1  0  0  0  0
 17 42  1  0  0  0  0
 18 19  2  0  0  0  0
 18 23  1  0  0  0  0
 19 20  1  0  0  0  0
 19 43  1  0  0  0  0
 20 21  2  0  0  0  0
 20 44  1  0  0  0  0
 21 22  1  0  0  0  0
 21 45  1  0  0  0  0
 22 23  2  0  0  0  0
 22 46  1  0  0  0  0
 23 47  1  0  0  0  0
 24 25  2  0  0  0  0
 24 26  1  0  0  0  0
 26 27  2  0  0  0  0
 26 48  1  0  0  0  0
 27 49  1  0  0  0  0
 28 29  2  0  0  0  0
 28 50  1  0  0  0  0
M  END
$$$$
