
 OpenBabel01122422393D

 51 54  0  0  0  0  0  0  0  0999 V2000
    1.0124    0.0331    0.1272 O   0  0  0  0  0  0  0  0  0  0  0  0
    2.2328    0.0838    0.0449 C   0  0  0  0  0  0  0  0  0  0  0  0
    2.9114    0.1756   -1.1455 N   0  0  0  0  0  0  0  0  0  0  0  0
    2.2370    0.1104   -2.4206 C   0  0  0  0  0  0  0  0  0  0  0  0
    3.0194    0.8982   -3.4221 C   0  0  0  0  0  0  0  0  0  0  0  0
    4.3065    0.6141   -3.6910 N   0  0  0  0  0  0  0  0  0  0  0  0
    4.6623    1.5494   -4.6036 N   0  0  0  0  0  0  0  0  0  0  0  0
    6.0173    1.5780   -5.1433 C   0  0  0  0  0  0  0  0  0  0  0  0
    6.9192    2.4640   -4.3190 C   0  0  0  0  0  0  0  0  0  0  0  0
    7.6088    1.9386   -3.2157 C   0  0  0  0  0  0  0  0  0  0  0  0
    8.3917    2.7653   -2.4084 C   0  0  0  0  0  0  0  0  0  0  0  0
    8.4980    4.1241   -2.6967 C   0  0  0  0  0  0  0  0  0  0  0  0
    7.8330    4.6553   -3.8002 C   0  0  0  0  0  0  0  0  0  0  0  0
    7.0467    3.8312   -4.6080 C   0  0  0  0  0  0  0  0  0  0  0  0
    3.6316    2.3769   -4.9522 C   0  0  0  0  0  0  0  0  0  0  0  0
    2.5608    2.0022   -4.1796 C   0  0  0  0  0  0  0  0  0  0  0  0
    3.0659    0.0647    1.2780 C   0  0  0  0  0  0  0  0  0  0  0  0
    4.3646   -0.4560    1.2699 C   0  0  0  0  0  0  0  0  0  0  0  0
    5.1093   -0.4905    2.4480 C   0  0  0  0  0  0  0  0  0  0  0  0
    4.5688    0.0057    3.6345 C   0  0  0  0  0  0  0  0  0  0  0  0
    3.2815    0.5618    3.6568 C   0  0  0  0  0  0  0  0  0  0  0  0
    2.7525    1.2044    4.9208 C   0  0  0  0  0  0  0  0  0  0  0  0
    1.9842    0.3135    5.8692 C   0  0  0  0  0  0  0  0  0  0  0  0
    0.8027   -0.3097    5.4732 C   0  0  0  0  0  0  0  0  0  0  0  0
    0.0536   -1.0077    6.4190 C   0  0  0  0  0  0  0  0  0  0  0  0
    0.4992   -1.0633    7.7330 C   0  0  0  0  0  0  0  0  0  0  0  0
    1.6878   -0.4318    8.0455 C   0  0  0  0  0  0  0  0  0  0  0  0
    2.4360    0.2523    7.1507 N   0  0  0  0  0  0  0  0  0  0  0  0
    2.5237    0.5612    2.4733 C   0  0  0  0  0  0  0  0  0  0  0  0
    3.9185    0.2579   -1.1908 H   0  0  0  0  0  0  0  0  0  0  0  0
    1.2155    0.4927   -2.3272 H   0  0  0  0  0  0  0  0  0  0  0  0
    2.1863   -0.9429   -2.7174 H   0  0  0  0  0  0  0  0  0  0  0  0
    5.9592    1.9322   -6.1798 H   0  0  0  0  0  0  0  0  0  0  0  0
    6.3904    0.5480   -5.1742 H   0  0  0  0  0  0  0  0  0  0  0  0
    7.5244    0.8816   -2.9699 H   0  0  0  0  0  0  0  0  0  0  0  0
    8.9091    2.3508   -1.5469 H   0  0  0  0  0  0  0  0  0  0  0  0
    9.0945    4.7703   -2.0577 H   0  0  0  0  0  0  0  0  0  0  0  0
    7.9187    5.7157   -4.0245 H   0  0  0  0  0  0  0  0  0  0  0  0
    6.5254    4.2690   -5.4563 H   0  0  0  0  0  0  0  0  0  0  0  0
    3.7490    3.1614   -5.6871 H   0  0  0  0  0  0  0  0  0  0  0  0
    1.5805    2.4552   -4.1556 H   0  0  0  0  0  0  0  0  0  0  0  0
    4.8034   -0.8623    0.3640 H   0  0  0  0  0  0  0  0  0  0  0  0
    6.1154   -0.9021    2.4374 H   0  0  0  0  0  0  0  0  0  0  0  0
    5.1659   -0.0285    4.5442 H   0  0  0  0  0  0  0  0  0  0  0  0
    2.1127    2.0565    4.6547 H   0  0  0  0  0  0  0  0  0  0  0  0
    3.6005    1.6496    5.4593 H   0  0  0  0  0  0  0  0  0  0  0  0
    0.4478   -0.2419    4.4499 H   0  0  0  0  0  0  0  0  0  0  0  0
   -0.8798   -1.4819    6.1328 H   0  0  0  0  0  0  0  0  0  0  0  0
   -0.0723   -1.5825    8.4954 H   0  0  0  0  0  0  0  0  0  0  0  0
    2.0811   -0.4489    9.0596 H   0  0  0  0  0  0  0  0  0  0  0  0
    1.5142    0.9691    2.4696 H   0  0  0  0  0  0  0  0  0  0  0  0
  1  2  2  0  0  0  0
  2  3  1  0  0  0  0
  2 17  1  0  0  0  0
  3  4  1  0  0  0  0
  3 30  1  0  0  0  0
  4  5  1  0  0  0  0
  4 31  1  0  0  0  0
  4 32  1  0  0  0  0
  5  6  2  0  0  0  0
  5 16  1  0  0  0  0
  6  7  1  0  0  0  0
  7  8  1  0  0  0  0
  7 15  1  0  0  0  0
  8  9  1  0  0  0  0
  8 33  1  0  0  0  0
  8 34  1  0  0  0  0
  9 10  2  0  0  0  0
  9 14  1  0  0  0  0
 10 11  1  0  0  0  0
 10 35  1  0  0  0  0
 11 12  2  0  0  0  0
 11 36  1  0  0  0  0
 12 13  1  0  0  0  0
 12 37  1  0  0  0  0
 13 14  2  0  0  0  0
 13 38  1  0  0  0  0
 14 39  1  0  0  0  0
 15 16  2  0  0  0  0
 15 40  1  0  0  0  0
 16 41  1  0  0  0  0
 17 18  2  0  0  0  0
 17 29  1  0  0  0  0
 18 19  1  0  0  0  0
 18 42  1  0  0  0  0
 19 20  2  0  0  0  0
 19 43  1  0  0  0  0
 20 21  1  0  0  0  0
 20 44  1  0  0  0  0
 21 22  1  0  0  0  0
 21 29  2  0  0  0  0
 22 23  1  0  0  0  0
 22 45  1  0  0  0  0
 22 46  1  0  0  0  0
 23 24  2  0  0  0  0
 23 28  1  0  0  0  0
 24 25  1  0  0  0  0
 24 47  1  0  0  0  0
 25 26  2  0  0  0  0
 25 48  1  0  0  0  0
 26 27  1  0  0  0  0
 26 49  1  0  0  0  0
 27 28  2  0  0  0  0
 27 50  1  0  0  0  0
 29 51  1  0  0  0  0
M  END
$$$$
