
 OpenBabel01122422393D

 42 45  0  0  1  0  0  0  0  0999 V2000
    3.5564   -1.8590   -1.5839 O   0  0  0  0  0  0  0  0  0  0  0  0
    3.7415   -0.8636   -0.8822 C   0  0  0  0  0  0  0  0  0  0  0  0
    3.2751    0.3868   -1.2504 N   0  0  0  0  0  0  0  0  0  0  0  0
    2.4821    0.4900   -2.4810 C   0  0  3  0  0  0  0  0  0  0  0  0
    1.4567    1.6095   -2.4336 C   0  0  0  0  0  0  0  0  0  0  0  0
    1.8018    2.9537   -2.2851 C   0  0  0  0  0  0  0  0  0  0  0  0
    0.8121    3.9332   -2.3032 C   0  0  0  0  0  0  0  0  0  0  0  0
   -0.5054    3.5383   -2.4705 C   0  0  0  0  0  0  0  0  0  0  0  0
   -0.8854    2.2540   -2.6158 N   0  0  0  0  0  0  0  0  0  0  0  0
    0.0986    1.3252   -2.6002 C   0  0  0  0  0  0  0  0  0  0  0  0
    3.3582    0.5171   -3.7285 C   0  0  0  0  0  0  0  0  0  0  0  0
    3.2592   -0.5243   -4.6552 C   0  0  0  0  0  0  0  0  0  0  0  0
    4.0828   -0.5109   -5.7777 C   0  0  0  0  0  0  0  0  0  0  0  0
    4.9858    0.5305   -5.9392 C   0  0  0  0  0  0  0  0  0  0  0  0
    5.0329    1.5178   -4.9723 C   0  0  0  0  0  0  0  0  0  0  0  0
    4.2457    1.5377   -3.8730 N   0  0  0  0  0  0  0  0  0  0  0  0
    4.3250   -1.0495    0.4732 C   0  0  0  0  0  0  0  0  0  0  0  0
    3.9350   -2.2228    1.1234 C   0  0  0  0  0  0  0  0  0  0  0  0
    4.2899   -2.4012    2.4330 C   0  0  0  0  0  0  0  0  0  0  0  0
    5.1469   -1.4858    3.0371 C   0  0  0  0  0  0  0  0  0  0  0  0
    5.5614   -1.7264    4.3493 C   0  0  0  0  0  0  0  0  0  0  0  0
    6.6908   -1.0875    4.8124 C   0  0  0  0  0  0  0  0  0  0  0  0
    7.2283   -1.4728    5.9774 F   0  0  0  0  0  0  0  0  0  0  0  0
    7.2990   -0.1152    4.0319 C   0  0  0  0  0  0  0  0  0  0  0  0
    8.4534    0.4317    4.4363 F   0  0  0  0  0  0  0  0  0  0  0  0
    6.7395    0.2742    2.8070 C   0  0  0  0  0  0  0  0  0  0  0  0
    5.6543   -0.4118    2.2580 C   0  0  0  0  0  0  0  0  0  0  0  0
    5.1670   -0.1298    1.0262 N   0  0  0  0  0  0  0  0  0  0  0  0
    3.5997    1.2110   -0.7725 H   0  0  0  0  0  0  0  0  0  0  0  0
    1.8925   -0.4386   -2.5192 H   0  0  0  0  0  0  0  0  0  0  0  0
    2.8459    3.2470   -2.1854 H   0  0  0  0  0  0  0  0  0  0  0  0
    1.0634    4.9838   -2.2082 H   0  0  0  0  0  0  0  0  0  0  0  0
   -1.3107    4.2667   -2.4966 H   0  0  0  0  0  0  0  0  0  0  0  0
   -0.2552    0.3072   -2.7394 H   0  0  0  0  0  0  0  0  0  0  0  0
    2.5685   -1.3468   -4.5042 H   0  0  0  0  0  0  0  0  0  0  0  0
    4.0265   -1.3136   -6.5060 H   0  0  0  0  0  0  0  0  0  0  0  0
    5.6483    0.5637   -6.7978 H   0  0  0  0  0  0  0  0  0  0  0  0
    5.7302    2.3459   -5.0549 H   0  0  0  0  0  0  0  0  0  0  0  0
    3.3501   -2.9715    0.5974 H   0  0  0  0  0  0  0  0  0  0  0  0
    3.9809   -3.3041    2.9517 H   0  0  0  0  0  0  0  0  0  0  0  0
    5.0671   -2.4606    4.9797 H   0  0  0  0  0  0  0  0  0  0  0  0
    7.2216    1.0688    2.2465 H   0  0  0  0  0  0  0  0  0  0  0  0
  1  2  2  0  0  0  0
  2  3  1  0  0  0  0
  2 17  1  0  0  0  0
  3  4  1  0  0  0  0
  3 29  1  0  0  0  0
  4  5  1  0  0  0  0
  4 11  1  0  0  0  0
  4 30  1  0  0  0  0
  5  6  2  0  0  0  0
  5 10  1  0  0  0  0
  6  7  1  0  0  0  0
  6 31  1  0  0  0  0
  7  8  2  0  0  0  0
  7 32  1  0  0  0  0
  8  9  1  0  0  0  0
  8 33  1  0  0  0  0
  9 10  2  0  0  0  0
 10 34  1  0  0  0  0
 11 12  2  0  0  0  0
 11 16  1  0  0  0  0
 12 13  1  0  0  0  0
 12 35  1  0  0  0  0
 13 14  2  0  0  0  0
 13 36  1  0  0  0  0
 14 15  1  0  0  0  0
 14 37  1  0  0  0  0
 15 16  2  0  0  0  0
 15 38  1  0  0  0  0
 17 18  2  0  0  0  0
 17 28  1  0  0  0  0
 18 19  1  0  0  0  0
 18 39  1  0  0  0  0
 19 20  2  0  0  0  0
 19 40  1  0  0  0  0
 20 21  1  0  0  0  0
 20 27  1  0  0  0  0
 21 22  2  0  0  0  0
 21 41  1  0  0  0  0
 22 23  1  0  0  0  0
 22 24  1  0  0  0  0
 24 25  1  0  0  0  0
 24 26  2  0  0  0  0
 26 27  1  0  0  0  0
 26 42  1  0  0  0  0
 27 28  2  0  0  0  0
M  END
$$$$
