
 OpenBabel01122422393D

 46 48  0  0  0  0  0  0  0  0999 V2000
    1.4283   -0.3000    1.1044 C   0  0  0  0  0  0  0  0  0  0  0  0
    2.4809   -0.0126    0.1874 O   0  0  0  0  0  0  0  0  0  0  0  0
    3.0836    1.2114    0.2942 C   0  0  0  0  0  0  0  0  0  0  0  0
    2.7178    2.1487    1.2579 C   0  0  0  0  0  0  0  0  0  0  0  0
    3.3949    3.3593    1.3741 C   0  0  0  0  0  0  0  0  0  0  0  0
    4.4762    3.6712    0.5556 C   0  0  0  0  0  0  0  0  0  0  0  0
    5.1988    4.8854    0.6831 N   0  0  0  0  0  0  0  0  0  0  0  0
    4.9404    5.8843    1.6168 C   0  0  0  0  0  0  0  0  0  0  0  0
    4.0873    5.8333    2.4976 O   0  0  0  0  0  0  0  0  0  0  0  0
    5.7310    7.1427    1.5540 C   0  0  0  0  0  0  0  0  0  0  0  0
    6.8411    7.3194    0.7293 C   0  0  0  0  0  0  0  0  0  0  0  0
    7.2600    6.2999   -0.0406 F   0  0  0  0  0  0  0  0  0  0  0  0
    7.5158    8.5471    0.7019 C   0  0  0  0  0  0  0  0  0  0  0  0
    8.6895    8.8021   -0.1714 C   0  0  0  0  0  0  0  0  0  0  0  0
    9.1410    7.7885   -0.9638 N   0  0  0  0  0  0  0  0  0  0  0  0
    9.2436    9.8948   -0.1881 O   0  0  0  0  0  0  0  0  0  0  0  0
    7.0728    9.6004    1.5192 C   0  0  0  0  0  0  0  0  0  0  0  0
    5.9743    9.4312    2.3576 C   0  0  0  0  0  0  0  0  0  0  0  0
    5.3093    8.2077    2.3727 C   0  0  0  0  0  0  0  0  0  0  0  0
    4.8400    2.7471   -0.4336 C   0  0  0  0  0  0  0  0  0  0  0  0
    4.1282    1.5328   -0.5913 C   0  0  0  0  0  0  0  0  0  0  0  0
    4.5597    0.6216   -1.6929 C   0  0  0  0  0  0  0  0  0  0  0  0
    5.7591    0.5594   -1.9645 O   0  0  0  0  0  0  0  0  0  0  0  0
    3.5925   -0.1704   -2.5110 C   0  0  0  0  0  0  0  0  0  0  0  0
    4.0265   -1.3650   -3.1019 C   0  0  0  0  0  0  0  0  0  0  0  0
    3.1490   -2.1310   -3.8763 C   0  0  0  0  0  0  0  0  0  0  0  0
    1.8357   -1.7076   -4.0688 C   0  0  0  0  0  0  0  0  0  0  0  0
    1.4010   -0.5116   -3.5006 C   0  0  0  0  0  0  0  0  0  0  0  0
    2.2796    0.2639   -2.7374 C   0  0  0  0  0  0  0  0  0  0  0  0
    1.0020   -1.2713    0.8412 H   0  0  0  0  0  0  0  0  0  0  0  0
    0.6222    0.4396    1.0341 H   0  0  0  0  0  0  0  0  0  0  0  0
    1.8153   -0.3651    2.1271 H   0  0  0  0  0  0  0  0  0  0  0  0
    1.9064    1.9825    1.9589 H   0  0  0  0  0  0  0  0  0  0  0  0
    3.0372    4.0281    2.1478 H   0  0  0  0  0  0  0  0  0  0  0  0
    5.9690    5.0211    0.0362 H   0  0  0  0  0  0  0  0  0  0  0  0
    8.7412    6.8592   -0.9730 H   0  0  0  0  0  0  0  0  0  0  0  0
    9.9467    7.9721   -1.5470 H   0  0  0  0  0  0  0  0  0  0  0  0
    7.5837   10.5622    1.5041 H   0  0  0  0  0  0  0  0  0  0  0  0
    5.6321   10.2451    2.9910 H   0  0  0  0  0  0  0  0  0  0  0  0
    4.4469    8.0905    3.0299 H   0  0  0  0  0  0  0  0  0  0  0  0
    5.6772    2.9532   -1.0979 H   0  0  0  0  0  0  0  0  0  0  0  0
    5.0487   -1.7069   -2.9576 H   0  0  0  0  0  0  0  0  0  0  0  0
    3.4912   -3.0595   -4.3286 H   0  0  0  0  0  0  0  0  0  0  0  0
    1.1509   -2.3064   -4.6646 H   0  0  0  0  0  0  0  0  0  0  0  0
    0.3759   -0.1798   -3.6485 H   0  0  0  0  0  0  0  0  0  0  0  0
    1.9196    1.1981   -2.3178 H   0  0  0  0  0  0  0  0  0  0  0  0
  1  2  1  0  0  0  0
  1 30  1  0  0  0  0
  1 31  1  0  0  0  0
  1 32  1  0  0  0  0
  2  3  1  0  0  0  0
  3  4  2  0  0  0  0
  3 21  1  0  0  0  0
  4  5  1  0  0  0  0
  4 33  1  0  0  0  0
  5  6  2  0  0  0  0
  5 34  1  0  0  0  0
  6  7  1  0  0  0  0
  6 20  1  0  0  0  0
  7  8  1  0  0  0  0
  7 35  1  0  0  0  0
  8  9  2  0  0  0  0
  8 10  1  0  0  0  0
 10 11  2  0  0  0  0
 10 19  1  0  0  0  0
 11 12  1  0  0  0  0
 11 13  1  0  0  0  0
 13 14  1  0  0  0  0
 13 17  2  0  0  0  0
 14 15  1  0  0  0  0
 14 16  2  0  0  0  0
 15 36  1  0  0  0  0
 15 37  1  0  0  0  0
 17 18  1  0  0  0  0
 17 38  1  0  0  0  0
 18 19  2  0  0  0  0
 18 39  1  0  0  0  0
 19 40  1  0  0  0  0
 20 21  2  0  0  0  0
 20 41  1  0  0  0  0
 21 22  1  0  0  0  0
 22 23  2  0  0  0  0
 22 24  1  0  0  0  0
 24 25  2  0  0  0  0
 24 29  1  0  0  0  0
 25 26  1  0  0  0  0
 25 42  1  0  0  0  0
 26 27  2  0  0  0  0
 26 43  1  0  0  0  0
 27 28  1  0  0  0  0
 27 44  1  0  0  0  0
 28 29  2  0  0  0  0
 28 45  1  0  0  0  0
 29 46  1  0  0  0  0
M  END
$$$$
