
 OpenBabel01122422393D

 39 42  0  0  0  0  0  0  0  0999 V2000
    0.8270    0.1661    0.1660 O   0  0  0  0  0  0  0  0  0  0  0  0
    2.0275   -0.0729    0.0671 C   0  0  0  0  0  0  0  0  0  0  0  0
    2.7019   -0.3598   -1.1095 N   0  0  0  0  0  0  0  0  0  0  0  0
    2.1289   -0.3553   -2.4034 C   0  0  0  0  0  0  0  0  0  0  0  0
    0.8811    0.2112   -2.6666 C   0  0  0  0  0  0  0  0  0  0  0  0
    0.3420    0.1824   -3.9466 C   0  0  0  0  0  0  0  0  0  0  0  0
    1.0590   -0.3934   -4.9898 C   0  0  0  0  0  0  0  0  0  0  0  0
    2.3313   -0.9415   -4.7772 C   0  0  0  0  0  0  0  0  0  0  0  0
    3.0676   -1.4740   -5.8621 N   0  0  0  0  0  0  0  0  0  0  0  0
    4.1903   -2.2256   -5.8159 C   0  0  0  0  0  0  0  0  0  0  0  0
    4.7088   -2.5383   -6.9631 N   0  0  0  0  0  0  0  0  0  0  0  0
    3.8649   -1.9570   -7.8615 N   0  0  0  0  0  0  0  0  0  0  0  0
    2.8345   -1.2805   -7.2125 C   0  0  0  0  0  0  0  0  0  0  0  0
    1.9722   -0.6361   -7.7868 O   0  0  0  0  0  0  0  0  0  0  0  0
    2.8522   -0.9239   -3.4652 C   0  0  0  0  0  0  0  0  0  0  0  0
    2.8487   -0.1068    1.2779 C   0  0  0  0  0  0  0  0  0  0  0  0
    4.1779   -0.2928    1.2813 N   0  0  0  0  0  0  0  0  0  0  0  0
    4.5558   -0.2365    2.6213 O   0  0  0  0  0  0  0  0  0  0  0  0
    3.4555   -0.0360    3.4047 C   0  0  0  0  0  0  0  0  0  0  0  0
    3.6494    0.0092    4.8437 C   0  0  0  0  0  0  0  0  0  0  0  0
    4.8341    0.4797    5.4204 C   0  0  0  0  0  0  0  0  0  0  0  0
    5.8364    0.9269    4.6500 F   0  0  0  0  0  0  0  0  0  0  0  0
    5.0027    0.5283    6.8029 C   0  0  0  0  0  0  0  0  0  0  0  0
    3.9727    0.0997    7.6282 C   0  0  0  0  0  0  0  0  0  0  0  0
    4.1304    0.1401    8.9562 F   0  0  0  0  0  0  0  0  0  0  0  0
    2.7800   -0.3649    7.0962 C   0  0  0  0  0  0  0  0  0  0  0  0
    2.6274   -0.4025    5.7133 C   0  0  0  0  0  0  0  0  0  0  0  0
    1.4624   -0.8567    5.2252 F   0  0  0  0  0  0  0  0  0  0  0  0
    2.3542    0.0526    2.5945 C   0  0  0  0  0  0  0  0  0  0  0  0
    3.6667   -0.6517   -1.0036 H   0  0  0  0  0  0  0  0  0  0  0  0
    0.2974    0.7100   -1.8997 H   0  0  0  0  0  0  0  0  0  0  0  0
   -0.6376    0.6170   -4.1303 H   0  0  0  0  0  0  0  0  0  0  0  0
    0.5848   -0.4064   -5.9676 H   0  0  0  0  0  0  0  0  0  0  0  0
    4.6021   -2.5459   -4.8525 H   0  0  0  0  0  0  0  0  0  0  0  0
    4.0234   -1.9644   -8.8598 H   0  0  0  0  0  0  0  0  0  0  0  0
    3.8342   -1.3362   -3.2559 H   0  0  0  0  0  0  0  0  0  0  0  0
    5.9279    0.9016    7.2280 H   0  0  0  0  0  0  0  0  0  0  0  0
    1.9775   -0.6952    7.7466 H   0  0  0  0  0  0  0  0  0  0  0  0
    1.3261    0.2074    2.8894 H   0  0  0  0  0  0  0  0  0  0  0  0
  1  2  2  0  0  0  0
  2  3  1  0  0  0  0
  2 16  1  0  0  0  0
  3  4  1  0  0  0  0
  3 30  1  0  0  0  0
  4  5  2  0  0  0  0
  4 15  1  0  0  0  0
  5  6  1  0  0  0  0
  5 31  1  0  0  0  0
  6  7  2  0  0  0  0
  6 32  1  0  0  0  0
  7  8  1  0  0  0  0
  7 33  1  0  0  0  0
  8  9  1  0  0  0  0
  8 15  2  0  0  0  0
  9 10  1  0  0  0  0
  9 13  1  0  0  0  0
 10 11  2  0  0  0  0
 10 34  1  0  0  0  0
 11 12  1  0  0  0  0
 12 13  1  0  0  0  0
 12 35  1  0  0  0  0
 13 14  2  0  0  0  0
 15 36  1  0  0  0  0
 16 17  2  0  0  0  0
 16 29  1  0  0  0  0
 17 18  1  0  0  0  0
 18 19  1  0  0  0  0
 19 20  1  0  0  0  0
 19 29  2  0  0  0  0
 20 21  2  0  0  0  0
 20 27  1  0  0  0  0
 21 22  1  0  0  0  0
 21 23  1  0  0  0  0
 23 24  2  0  0  0  0
 23 37  1  0  0  0  0
 24 25  1  0  0  0  0
 24 26  1  0  0  0  0
 26 27  2  0  0  0  0
 26 38  1  0  0  0  0
 27 28  1  0  0  0  0
 29 39  1  0  0  0  0
M  END
$$$$
