
 OpenBabel01122422393D

 44 47  0  0  0  0  0  0  0  0999 V2000
    1.1395    0.5025   -0.2471 O   0  0  0  0  0  0  0  0  0  0  0  0
    2.3675    0.4549   -0.2031 C   0  0  0  0  0  0  0  0  0  0  0  0
    3.0670    1.1386    0.7558 N   0  0  0  0  0  0  0  0  0  0  0  0
    2.3473    1.9444    1.7246 C   0  0  0  0  0  0  0  0  0  0  0  0
    3.2914    2.7136    2.5721 C   0  0  0  0  0  0  0  0  0  0  0  0
    2.9628    3.8947    3.1112 N   0  0  0  0  0  0  0  0  0  0  0  0
    4.1110    4.2523    3.8134 O   0  0  0  0  0  0  0  0  0  0  0  0
    5.0192    3.2460    3.6285 C   0  0  0  0  0  0  0  0  0  0  0  0
    6.3095    3.3976    4.2868 C   0  0  0  0  0  0  0  0  0  0  0  0
    6.6308    4.5531    5.0154 C   0  0  0  0  0  0  0  0  0  0  0  0
    7.8737    4.6803    5.6399 C   0  0  0  0  0  0  0  0  0  0  0  0
    8.8114    3.6548    5.5457 C   0  0  0  0  0  0  0  0  0  0  0  0
    8.5067    2.5012    4.8284 C   0  0  0  0  0  0  0  0  0  0  0  0
    7.2638    2.3724    4.2021 C   0  0  0  0  0  0  0  0  0  0  0  0
    4.5635    2.2733    2.8673 N   0  0  0  0  0  0  0  0  0  0  0  0
    3.1086   -0.3707   -1.2007 C   0  0  0  0  0  0  0  0  0  0  0  0
    2.2925   -1.1064   -2.0790 C   0  0  0  0  0  0  0  0  0  0  0  0
    2.8758   -1.9011   -3.0446 C   0  0  0  0  0  0  0  0  0  0  0  0
    4.2044   -2.0510   -3.1649 N   0  0  0  0  0  0  0  0  0  0  0  0
    4.9766   -1.3502   -2.3008 C   0  0  0  0  0  0  0  0  0  0  0  0
    4.5002   -0.4541   -1.3393 C   0  0  0  0  0  0  0  0  0  0  0  0
    5.3364    0.2992   -0.5389 O   0  0  0  0  0  0  0  0  0  0  0  0
    6.6141    0.5707   -0.9921 C   0  0  0  0  0  0  0  0  0  0  0  0
    6.8755    1.0244   -2.2929 C   0  0  0  0  0  0  0  0  0  0  0  0
    8.1936    1.1687   -2.7301 C   0  0  0  0  0  0  0  0  0  0  0  0
    9.2383    0.9279   -1.8459 C   0  0  0  0  0  0  0  0  0  0  0  0
   10.5026    1.0507   -2.2707 F   0  0  0  0  0  0  0  0  0  0  0  0
    8.9887    0.5594   -0.5276 C   0  0  0  0  0  0  0  0  0  0  0  0
    7.6703    0.3808   -0.0959 C   0  0  0  0  0  0  0  0  0  0  0  0
    4.0701    1.0328    0.8642 H   0  0  0  0  0  0  0  0  0  0  0  0
    1.7356    1.2794    2.3444 H   0  0  0  0  0  0  0  0  0  0  0  0
    1.6741    2.6181    1.1814 H   0  0  0  0  0  0  0  0  0  0  0  0
    5.9182    5.3708    5.1070 H   0  0  0  0  0  0  0  0  0  0  0  0
    8.1080    5.5815    6.2004 H   0  0  0  0  0  0  0  0  0  0  0  0
    9.7814    3.7550    6.0344 H   0  0  0  0  0  0  0  0  0  0  0  0
    9.2367    1.6991    4.7543 H   0  0  0  0  0  0  0  0  0  0  0  0
    7.0400    1.4626    3.6486 H   0  0  0  0  0  0  0  0  0  0  0  0
    1.2083   -1.0587   -2.0164 H   0  0  0  0  0  0  0  0  0  0  0  0
    2.2717   -2.4561   -3.7566 H   0  0  0  0  0  0  0  0  0  0  0  0
    6.0384   -1.5383   -2.4363 H   0  0  0  0  0  0  0  0  0  0  0  0
    6.0645    1.2235   -2.9892 H   0  0  0  0  0  0  0  0  0  0  0  0
    8.4107    1.4534   -3.7553 H   0  0  0  0  0  0  0  0  0  0  0  0
    9.8243    0.4002    0.1475 H   0  0  0  0  0  0  0  0  0  0  0  0
    7.4765    0.0734    0.9281 H   0  0  0  0  0  0  0  0  0  0  0  0
  1  2  2  0  0  0  0
  2  3  1  0  0  0  0
  2 16  1  0  0  0  0
  3  4  1  0  0  0  0
  3 30  1  0  0  0  0
  4  5  1  0  0  0  0
  4 31  1  0  0  0  0
  4 32  1  0  0  0  0
  5  6  2  0  0  0  0
  5 15  1  0  0  0  0
  6  7  1  0  0  0  0
  7  8  1  0  0  0  0
  8  9  1  0  0  0  0
  8 15  2  0  0  0  0
  9 10  2  0  0  0  0
  9 14  1  0  0  0  0
 10 11  1  0  0  0  0
 10 33  1  0  0  0  0
 11 12  2  0  0  0  0
 11 34  1  0  0  0  0
 12 13  1  0  0  0  0
 12 35  1  0  0  0  0
 13 14  2  0  0  0  0
 13 36  1  0  0  0  0
 14 37  1  0  0  0  0
 16 17  2  0  0  0  0
 16 21  1  0  0  0  0
 17 18  1  0  0  0  0
 17 38  1  0  0  0  0
 18 19  2  0  0  0  0
 18 39  1  0  0  0  0
 19 20  1  0  0  0  0
 20 21  2  0  0  0  0
 20 40  1  0  0  0  0
 21 22  1  0  0  0  0
 22 23  1  0  0  0  0
 23 24  2  0  0  0  0
 23 29  1  0  0  0  0
 24 25  1  0  0  0  0
 24 41  1  0  0  0  0
 25 26  2  0  0  0  0
 25 42  1  0  0  0  0
 26 27  1  0  0  0  0
 26 28  1  0  0  0  0
 28 29  2  0  0  0  0
 28 43  1  0  0  0  0
 29 44  1  0  0  0  0
M  END
$$$$
