
 OpenBabel01122422393D

 50 53  0  0  0  0  0  0  0  0999 V2000
    1.6919    0.4580   -2.3474 C   0  0  0  0  0  0  0  0  0  0  0  0
    0.2594    0.1850   -1.9923 C   0  0  0  0  0  0  0  0  0  0  0  0
   -0.6646   -0.1631   -2.9800 C   0  0  0  0  0  0  0  0  0  0  0  0
   -1.9924   -0.4465   -2.6423 C   0  0  0  0  0  0  0  0  0  0  0  0
   -2.4217   -0.3821   -1.3061 C   0  0  0  0  0  0  0  0  0  0  0  0
   -3.7717   -0.6872   -0.9544 N   0  0  0  0  0  0  0  0  0  0  0  0
   -4.7599   -1.1466   -1.7994 C   0  0  0  0  0  0  0  0  0  0  0  0
   -5.9049   -1.2785   -1.0580 C   0  0  0  0  0  0  0  0  0  0  0  0
   -5.5547   -0.8593    0.2431 C   0  0  0  0  0  0  0  0  0  0  0  0
   -6.5034   -0.7097    1.4012 C   0  0  0  0  0  0  0  0  0  0  0  0
   -6.0897   -1.5289    2.5181 N   0  0  0  0  0  0  0  0  0  0  0  0
   -6.9970   -2.1250    3.3753 C   0  0  0  0  0  0  0  0  0  0  0  0
   -8.2100   -2.0381    3.2281 O   0  0  0  0  0  0  0  0  0  0  0  0
   -6.4385   -2.9081    4.5273 C   0  0  0  0  0  0  0  0  0  0  0  0
   -5.0690   -3.1581    4.6376 C   0  0  0  0  0  0  0  0  0  0  0  0
   -4.5621   -3.8972    5.7056 C   0  0  0  0  0  0  0  0  0  0  0  0
   -5.3928   -4.4158    6.7000 C   0  0  0  0  0  0  0  0  0  0  0  0
   -4.8944   -5.1496    7.7975 N   0  0  0  0  0  0  0  0  0  0  0  0
   -3.5643   -5.4717    8.0463 C   0  0  0  0  0  0  0  0  0  0  0  0
   -2.6187   -5.1983    7.3130 O   0  0  0  0  0  0  0  0  0  0  0  0
   -3.3415   -6.1822    9.2894 C   0  0  0  0  0  0  0  0  0  0  0  0
   -2.1634   -6.6498    9.8437 C   0  0  0  0  0  0  0  0  0  0  0  0
   -2.5029   -7.2426   11.0795 C   0  0  0  0  0  0  0  0  0  0  0  0
   -3.8653   -7.1131   11.2022 C   0  0  0  0  0  0  0  0  0  0  0  0
   -4.3888   -6.4721   10.1236 O   0  0  0  0  0  0  0  0  0  0  0  0
   -6.7689   -4.1837    6.5899 C   0  0  0  0  0  0  0  0  0  0  0  0
   -7.2901   -3.4383    5.5082 C   0  0  0  0  0  0  0  0  0  0  0  0
   -4.2492   -0.5399    0.3216 N   0  0  0  0  0  0  0  0  0  0  0  0
   -1.4995   -0.0154   -0.3172 C   0  0  0  0  0  0  0  0  0  0  0  0
   -0.1677    0.2571   -0.6603 C   0  0  0  0  0  0  0  0  0  0  0  0
    1.8472    0.4398   -3.4318 H   0  0  0  0  0  0  0  0  0  0  0  0
    2.3411   -0.3030   -1.9029 H   0  0  0  0  0  0  0  0  0  0  0  0
    1.9921    1.4467   -1.9864 H   0  0  0  0  0  0  0  0  0  0  0  0
   -0.3598   -0.2197   -4.0233 H   0  0  0  0  0  0  0  0  0  0  0  0
   -2.6631   -0.7053   -3.4552 H   0  0  0  0  0  0  0  0  0  0  0  0
   -4.5830   -1.3375   -2.8460 H   0  0  0  0  0  0  0  0  0  0  0  0
   -6.8731   -1.5995   -1.4158 H   0  0  0  0  0  0  0  0  0  0  0  0
   -7.5217   -0.9743    1.0975 H   0  0  0  0  0  0  0  0  0  0  0  0
   -6.5077    0.3311    1.7428 H   0  0  0  0  0  0  0  0  0  0  0  0
   -5.1222   -1.4135    2.7778 H   0  0  0  0  0  0  0  0  0  0  0  0
   -4.3548   -2.8066    3.9026 H   0  0  0  0  0  0  0  0  0  0  0  0
   -3.4879   -4.0443    5.7139 H   0  0  0  0  0  0  0  0  0  0  0  0
   -5.5580   -5.4700    8.4949 H   0  0  0  0  0  0  0  0  0  0  0  0
   -1.1826   -6.5552    9.3955 H   0  0  0  0  0  0  0  0  0  0  0  0
   -1.8333   -7.7062   11.7928 H   0  0  0  0  0  0  0  0  0  0  0  0
   -4.5756   -7.4052   11.9625 H   0  0  0  0  0  0  0  0  0  0  0  0
   -7.4624   -4.5761    7.3328 H   0  0  0  0  0  0  0  0  0  0  0  0
   -8.3670   -3.2823    5.4388 H   0  0  0  0  0  0  0  0  0  0  0  0
   -1.7970    0.0511    0.7272 H   0  0  0  0  0  0  0  0  0  0  0  0
    0.5391    0.5230    0.1234 H   0  0  0  0  0  0  0  0  0  0  0  0
  1  2  1  0  0  0  0
  1 31  1  0  0  0  0
  1 32  1  0  0  0  0
  1 33  1  0  0  0  0
  2  3  2  0  0  0  0
  2 30  1  0  0  0  0
  3  4  1  0  0  0  0
  3 34  1  0  0  0  0
  4  5  2  0  0  0  0
  4 35  1  0  0  0  0
  5  6  1  0  0  0  0
  5 29  1  0  0  0  0
  6  7  1  0  0  0  0
  6 28  1  0  0  0  0
  7  8  2  0  0  0  0
  7 36  1  0  0  0  0
  8  9  1  0  0  0  0
  8 37  1  0  0  0  0
  9 10  1  0  0  0  0
  9 28  2  0  0  0  0
 10 11  1  0  0  0  0
 10 38  1  0  0  0  0
 10 39  1  0  0  0  0
 11 12  1  0  0  0  0
 11 40  1  0  0  0  0
 12 13  2  0  0  0  0
 12 14  1  0  0  0  0
 14 15  2  0  0  0  0
 14 27  1  0  0  0  0
 15 16  1  0  0  0  0
 15 41  1  0  0  0  0
 16 17  2  0  0  0  0
 16 42  1  0  0  0  0
 17 18  1  0  0  0  0
 17 26  1  0  0  0  0
 18 19  1  0  0  0  0
 18 43  1  0  0  0  0
 19 20  2  0  0  0  0
 19 21  1  0  0  0  0
 21 22  2  0  0  0  0
 21 25  1  0  0  0  0
 22 23  1  0  0  0  0
 22 44  1  0  0  0  0
 23 24  2  0  0  0  0
 23 45  1  0  0  0  0
 24 25  1  0  0  0  0
 24 46  1  0  0  0  0
 26 27  2  0  0  0  0
 26 47  1  0  0  0  0
 27 48  1  0  0  0  0
 29 30  2  0  0  0  0
 29 49  1  0  0  0  0
 30 50  1  0  0  0  0
M  END
$$$$
