
 OpenBabel01122422353D

 45 48  0  0  0  0  0  0  0  0999 V2000
   -0.7516    5.6198   -1.2599 C   0  0  0  0  0  0  0  0  0  0  0  0
   -1.5706    4.3821   -1.0377 C   0  0  0  0  0  0  0  0  0  0  0  0
   -1.3776    3.2516   -1.8338 C   0  0  0  0  0  0  0  0  0  0  0  0
   -2.1184    2.0889   -1.6084 C   0  0  0  0  0  0  0  0  0  0  0  0
   -3.0702    2.0408   -0.5789 C   0  0  0  0  0  0  0  0  0  0  0  0
   -3.8174    0.8507   -0.3388 N   0  0  0  0  0  0  0  0  0  0  0  0
   -3.6711   -0.3653   -0.9711 C   0  0  0  0  0  0  0  0  0  0  0  0
   -4.6200   -1.2103   -0.4579 C   0  0  0  0  0  0  0  0  0  0  0  0
   -5.3218   -0.4356    0.4863 C   0  0  0  0  0  0  0  0  0  0  0  0
   -6.4995   -0.8767    1.2923 C   0  0  0  0  0  0  0  0  0  0  0  0
   -6.0425   -1.4982    2.5153 N   0  0  0  0  0  0  0  0  0  0  0  0
   -5.7842   -2.8459    2.5922 C   0  0  0  0  0  0  0  0  0  0  0  0
   -5.9580   -3.6249    1.6623 O   0  0  0  0  0  0  0  0  0  0  0  0
   -5.2732   -3.2944    3.9394 C   0  0  0  0  0  0  0  0  0  0  0  0
   -5.3121   -4.6117    4.1915 C   0  0  0  0  0  0  0  0  0  0  0  0
   -4.8242   -5.1028    5.5033 C   0  0  0  0  0  0  0  0  0  0  0  0
   -4.8527   -6.2952    5.7760 O   0  0  0  0  0  0  0  0  0  0  0  0
   -4.2959   -4.1042    6.4639 C   0  0  0  0  0  0  0  0  0  0  0  0
   -3.8357   -4.5003    7.7227 C   0  0  0  0  0  0  0  0  0  0  0  0
   -3.3518   -3.5338    8.5977 C   0  0  0  0  0  0  0  0  0  0  0  0
   -2.9241   -3.9004    9.8120 F   0  0  0  0  0  0  0  0  0  0  0  0
   -3.3118   -2.1914    8.2407 C   0  0  0  0  0  0  0  0  0  0  0  0
   -3.7686   -1.8158    6.9837 C   0  0  0  0  0  0  0  0  0  0  0  0
   -3.7464   -0.5194    6.6395 F   0  0  0  0  0  0  0  0  0  0  0  0
   -4.2547   -2.7582    6.0724 C   0  0  0  0  0  0  0  0  0  0  0  0
   -4.8079   -2.3584    4.8443 N   0  0  0  0  0  0  0  0  0  0  0  0
   -4.8089    0.8000    0.5967 N   0  0  0  0  0  0  0  0  0  0  0  0
   -3.2794    3.1783    0.2102 C   0  0  0  0  0  0  0  0  0  0  0  0
   -2.5274    4.3389   -0.0152 C   0  0  0  0  0  0  0  0  0  0  0  0
   -0.1169    5.5247   -2.1476 H   0  0  0  0  0  0  0  0  0  0  0  0
   -0.1006    5.7980   -0.3983 H   0  0  0  0  0  0  0  0  0  0  0  0
   -1.4029    6.4865   -1.4090 H   0  0  0  0  0  0  0  0  0  0  0  0
   -0.6457    3.2625   -2.6393 H   0  0  0  0  0  0  0  0  0  0  0  0
   -1.9294    1.2448   -2.2630 H   0  0  0  0  0  0  0  0  0  0  0  0
   -2.9199   -0.5397   -1.7242 H   0  0  0  0  0  0  0  0  0  0  0  0
   -4.7944   -2.2431   -0.7290 H   0  0  0  0  0  0  0  0  0  0  0  0
   -7.1109   -1.5832    0.7200 H   0  0  0  0  0  0  0  0  0  0  0  0
   -7.1293   -0.0242    1.5667 H   0  0  0  0  0  0  0  0  0  0  0  0
   -5.9198   -0.8975    3.3144 H   0  0  0  0  0  0  0  0  0  0  0  0
   -5.6791   -5.3532    3.4930 H   0  0  0  0  0  0  0  0  0  0  0  0
   -3.8584   -5.5433    8.0265 H   0  0  0  0  0  0  0  0  0  0  0  0
   -2.9396   -1.4474    8.9357 H   0  0  0  0  0  0  0  0  0  0  0  0
   -4.4571   -1.4804    4.4702 H   0  0  0  0  0  0  0  0  0  0  0  0
   -4.0160    3.1774    1.0118 H   0  0  0  0  0  0  0  0  0  0  0  0
   -2.6906    5.2099    0.6158 H   0  0  0  0  0  0  0  0  0  0  0  0
  1  2  1  0  0  0  0
  1 30  1  0  0  0  0
  1 31  1  0  0  0  0
  1 32  1  0  0  0  0
  2  3  2  0  0  0  0
  2 29  1  0  0  0  0
  3  4  1  0  0  0  0
  3 33  1  0  0  0  0
  4  5  2  0  0  0  0
  4 34  1  0  0  0  0
  5  6  1  0  0  0  0
  5 28  1  0  0  0  0
  6  7  1  0  0  0  0
  6 27  1  0  0  0  0
  7  8  2  0  0  0  0
  7 35  1  0  0  0  0
  8  9  1  0  0  0  0
  8 36  1  0  0  0  0
  9 10  1  0  0  0  0
  9 27  2  0  0  0  0
 10 11  1  0  0  0  0
 10 37  1  0  0  0  0
 10 38  1  0  0  0  0
 11 12  1  0  0  0  0
 11 39  1  0  0  0  0
 12 13  2  0  0  0  0
 12 14  1  0  0  0  0
 14 15  2  0  0  0  0
 14 26  1  0  0  0  0
 15 16  1  0  0  0  0
 15 40  1  0  0  0  0
 16 17  2  0  0  0  0
 16 18  1  0  0  0  0
 18 19  2  0  0  0  0
 18 25  1  0  0  0  0
 19 20  1  0  0  0  0
 19 41  1  0  0  0  0
 20 21  1  0  0  0  0
 20 22  2  0  0  0  0
 22 23  1  0  0  0  0
 22 42  1  0  0  0  0
 23 24  1  0  0  0  0
 23 25  2  0  0  0  0
 25 26  1  0  0  0  0
 26 43  1  0  0  0  0
 28 29  2  0  0  0  0
 28 44  1  0  0  0  0
 29 45  1  0  0  0  0
M  END
$$$$
