
 OpenBabel01122422393D

 49 52  0  0  1  0  0  0  0  0999 V2000
    0.1331   -2.8382   -0.2417 O   0  0  0  0  0  0  0  0  0  0  0  0
   -0.7476   -2.0039   -0.1281 C   0  0  0  0  0  0  0  0  0  0  0  0
   -0.5629   -0.5177    0.0482 C   0  0  0  0  0  0  0  0  0  0  0  0
   -1.9212    0.0472   -0.3981 C   0  0  3  0  0  0  0  0  0  0  0  0
   -1.9487    0.3965   -1.8830 C   0  0  0  0  0  0  0  0  0  0  0  0
   -1.7220   -0.5676   -2.8814 C   0  0  0  0  0  0  0  0  0  0  0  0
   -1.7394   -0.2339   -4.2367 C   0  0  0  0  0  0  0  0  0  0  0  0
   -1.9907    1.0803   -4.6178 C   0  0  0  0  0  0  0  0  0  0  0  0
   -2.0279    1.5180   -6.0331 C   0  0  0  0  0  0  0  0  0  0  0  0
   -2.7731    2.4488   -6.3012 O   0  0  0  0  0  0  0  0  0  0  0  0
   -1.2154    0.8318   -6.9349 N   0  0  0  0  0  0  0  0  0  0  0  0
   -1.1107    1.1560   -8.3053 C   0  0  0  0  0  0  0  0  0  0  0  0
   -1.5290    2.3955   -8.8027 C   0  0  0  0  0  0  0  0  0  0  0  0
   -1.5386    2.6556  -10.1657 C   0  0  0  0  0  0  0  0  0  0  0  0
   -1.1078    1.6794  -11.0458 C   0  0  0  0  0  0  0  0  0  0  0  0
   -1.2069    1.9444  -12.3541 F   0  0  0  0  0  0  0  0  0  0  0  0
   -0.5814    0.4716  -10.5768 C   0  0  0  0  0  0  0  0  0  0  0  0
   -0.0317   -0.5520  -11.5074 C   0  0  0  0  0  0  0  0  0  0  0  0
   -0.0842   -1.7363  -11.1932 O   0  0  0  0  0  0  0  0  0  0  0  0
    0.6439   -0.1626  -12.7766 C   0  0  0  0  0  0  0  0  0  0  0  0
    0.6380   -1.0371  -13.8689 C   0  0  0  0  0  0  0  0  0  0  0  0
    1.3254   -0.6957  -15.0361 C   0  0  0  0  0  0  0  0  0  0  0  0
    2.0094    0.5197  -15.1142 C   0  0  0  0  0  0  0  0  0  0  0  0
    2.0061    1.3978  -14.0359 C   0  0  0  0  0  0  0  0  0  0  0  0
    1.3425    1.0492  -12.8628 C   0  0  0  0  0  0  0  0  0  0  0  0
   -0.5930    0.2042   -9.1959 C   0  0  0  0  0  0  0  0  0  0  0  0
   -2.2404    2.0497   -3.6354 C   0  0  0  0  0  0  0  0  0  0  0  0
   -2.2022    1.7097   -2.2787 C   0  0  0  0  0  0  0  0  0  0  0  0
   -2.8964   -1.0789   -0.0463 C   0  0  0  0  0  0  0  0  0  0  0  0
   -2.1012   -2.2701   -0.1381 N   0  0  0  0  0  0  0  0  0  0  0  0
    0.2782   -0.1471   -0.5440 H   0  0  0  0  0  0  0  0  0  0  0  0
   -0.3842   -0.3277    1.1121 H   0  0  0  0  0  0  0  0  0  0  0  0
   -2.1630    0.9477    0.1801 H   0  0  0  0  0  0  0  0  0  0  0  0
   -1.5214   -1.6052   -2.6267 H   0  0  0  0  0  0  0  0  0  0  0  0
   -1.5681   -1.0228   -4.9619 H   0  0  0  0  0  0  0  0  0  0  0  0
   -0.7421   -0.0070   -6.6280 H   0  0  0  0  0  0  0  0  0  0  0  0
   -1.8683    3.1895   -8.1450 H   0  0  0  0  0  0  0  0  0  0  0  0
   -1.9018    3.6084  -10.5391 H   0  0  0  0  0  0  0  0  0  0  0  0
    0.1033   -1.9842  -13.8170 H   0  0  0  0  0  0  0  0  0  0  0  0
    1.3376   -1.3779  -15.8820 H   0  0  0  0  0  0  0  0  0  0  0  0
    2.5544    0.7800  -16.0180 H   0  0  0  0  0  0  0  0  0  0  0  0
    2.5295    2.3487  -14.0976 H   0  0  0  0  0  0  0  0  0  0  0  0
    1.3680    1.7438  -12.0296 H   0  0  0  0  0  0  0  0  0  0  0  0
   -0.2335   -0.7590   -8.8394 H   0  0  0  0  0  0  0  0  0  0  0  0
   -2.4471    3.0792   -3.9226 H   0  0  0  0  0  0  0  0  0  0  0  0
   -2.3766    2.4960   -1.5445 H   0  0  0  0  0  0  0  0  0  0  0  0
   -3.7582   -1.1513   -0.7160 H   0  0  0  0  0  0  0  0  0  0  0  0
   -3.2458   -0.9983    0.9880 H   0  0  0  0  0  0  0  0  0  0  0  0
   -2.4516   -3.2116   -0.2673 H   0  0  0  0  0  0  0  0  0  0  0  0
  1  2  2  0  0  0  0
  2  3  1  0  0  0  0
  2 30  1  0  0  0  0
  3  4  1  0  0  0  0
  3 31  1  0  0  0  0
  3 32  1  0  0  0  0
  4  5  1  0  0  0  0
  4 29  1  0  0  0  0
  4 33  1  0  0  0  0
  5  6  2  0  0  0  0
  5 28  1  0  0  0  0
  6  7  1  0  0  0  0
  6 34  1  0  0  0  0
  7  8  2  0  0  0  0
  7 35  1  0  0  0  0
  8  9  1  0  0  0  0
  8 27  1  0  0  0  0
  9 10  2  0  0  0  0
  9 11  1  0  0  0  0
 11 12  1  0  0  0  0
 11 36  1  0  0  0  0
 12 13  2  0  0  0  0
 12 26  1  0  0  0  0
 13 14  1  0  0  0  0
 13 37  1  0  0  0  0
 14 15  2  0  0  0  0
 14 38  1  0  0  0  0
 15 16  1  0  0  0  0
 15 17  1  0  0  0  0
 17 18  1  0  0  0  0
 17 26  2  0  0  0  0
 18 19  2  0  0  0  0
 18 20  1  0  0  0  0
 20 21  2  0  0  0  0
 20 25  1  0  0  0  0
 21 22  1  0  0  0  0
 21 39  1  0  0  0  0
 22 23  2  0  0  0  0
 22 40  1  0  0  0  0
 23 24  1  0  0  0  0
 23 41  1  0  0  0  0
 24 25  2  0  0  0  0
 24 42  1  0  0  0  0
 25 43  1  0  0  0  0
 26 44  1  0  0  0  0
 27 28  2  0  0  0  0
 27 45  1  0  0  0  0
 28 46  1  0  0  0  0
 29 30  1  0  0  0  0
 29 47  1  0  0  0  0
 29 48  1  0  0  0  0
 30 49  1  0  0  0  0
M  END
$$$$
