
 OpenBabel01122422393D

 49 52  0  0  0  0  0  0  0  0999 V2000
    3.8312   -0.9206   -0.7640 C   0  0  0  0  0  0  0  0  0  0  0  0
    2.9521   -0.4889    0.2752 O   0  0  0  0  0  0  0  0  0  0  0  0
    3.3704    0.6222    0.9447 C   0  0  0  0  0  0  0  0  0  0  0  0
    4.1901    1.6168    0.4171 C   0  0  0  0  0  0  0  0  0  0  0  0
    4.5994    2.7350    1.1897 C   0  0  0  0  0  0  0  0  0  0  0  0
    5.4046    3.7465    0.4683 C   0  0  0  0  0  0  0  0  0  0  0  0
    5.1253    3.9189   -0.7158 O   0  0  0  0  0  0  0  0  0  0  0  0
    6.4527    4.3358    1.1589 N   0  0  0  0  0  0  0  0  0  0  0  0
    7.3853    5.2258    0.5782 C   0  0  0  0  0  0  0  0  0  0  0  0
    7.1593    5.8616   -0.6485 C   0  0  0  0  0  0  0  0  0  0  0  0
    8.1529    6.6333   -1.2480 C   0  0  0  0  0  0  0  0  0  0  0  0
    9.3907    6.8296   -0.6250 C   0  0  0  0  0  0  0  0  0  0  0  0
   10.4392    7.6026   -1.3757 C   0  0  0  0  0  0  0  0  0  0  0  0
    9.5908    6.2757    0.6568 C   0  0  0  0  0  0  0  0  0  0  0  0
   10.8764    6.4910    1.3955 C   0  0  0  0  0  0  0  0  0  0  0  0
   11.9364    6.5660    0.7826 O   0  0  0  0  0  0  0  0  0  0  0  0
   10.9138    6.5745    2.8834 C   0  0  0  0  0  0  0  0  0  0  0  0
    9.8619    7.1120    3.6317 C   0  0  0  0  0  0  0  0  0  0  0  0
    9.9390    7.1367    5.0280 C   0  0  0  0  0  0  0  0  0  0  0  0
   11.0766    6.6492    5.6729 C   0  0  0  0  0  0  0  0  0  0  0  0
   12.1423    6.1449    4.9309 C   0  0  0  0  0  0  0  0  0  0  0  0
   12.0640    6.1088    3.5361 C   0  0  0  0  0  0  0  0  0  0  0  0
    8.5950    5.4597    1.2322 C   0  0  0  0  0  0  0  0  0  0  0  0
    4.1883    2.8943    2.5197 C   0  0  0  0  0  0  0  0  0  0  0  0
    3.3495    1.9148    3.0054 C   0  0  0  0  0  0  0  0  0  0  0  0
    2.9434    0.8177    2.2393 C   0  0  0  0  0  0  0  0  0  0  0  0
    2.0958    0.0388    3.0222 N   0  0  0  0  0  0  0  0  0  0  0  0
    1.9632    0.6371    4.2809 C   0  0  0  0  0  0  0  0  0  0  0  0
    1.2996    0.2314    5.2175 O   0  0  0  0  0  0  0  0  0  0  0  0
    2.7491    1.8009    4.2567 N   0  0  0  0  0  0  0  0  0  0  0  0
    3.4856   -1.8952   -1.1189 H   0  0  0  0  0  0  0  0  0  0  0  0
    4.8531   -1.0429   -0.3857 H   0  0  0  0  0  0  0  0  0  0  0  0
    3.8115   -0.2336   -1.6167 H   0  0  0  0  0  0  0  0  0  0  0  0
    4.5170    1.5715   -0.6195 H   0  0  0  0  0  0  0  0  0  0  0  0
    6.6858    3.9590    2.0761 H   0  0  0  0  0  0  0  0  0  0  0  0
    6.2218    5.7638   -1.1817 H   0  0  0  0  0  0  0  0  0  0  0  0
    7.9472    7.0657   -2.2264 H   0  0  0  0  0  0  0  0  0  0  0  0
   10.0672    7.9301   -2.3539 H   0  0  0  0  0  0  0  0  0  0  0  0
   11.3112    6.9719   -1.5753 H   0  0  0  0  0  0  0  0  0  0  0  0
   10.7342    8.4970   -0.8210 H   0  0  0  0  0  0  0  0  0  0  0  0
    8.9812    7.5243    3.1501 H   0  0  0  0  0  0  0  0  0  0  0  0
    9.1198    7.5463    5.6109 H   0  0  0  0  0  0  0  0  0  0  0  0
   11.1382    6.6766    6.7589 H   0  0  0  0  0  0  0  0  0  0  0  0
   13.0343    5.7813    5.4314 H   0  0  0  0  0  0  0  0  0  0  0  0
   12.8992    5.7170    2.9622 H   0  0  0  0  0  0  0  0  0  0  0  0
    8.7887    4.9613    2.1804 H   0  0  0  0  0  0  0  0  0  0  0  0
    4.4611    3.7545    3.1159 H   0  0  0  0  0  0  0  0  0  0  0  0
    1.6354   -0.8092    2.7310 H   0  0  0  0  0  0  0  0  0  0  0  0
    2.8260    2.4278    5.0408 H   0  0  0  0  0  0  0  0  0  0  0  0
  1  2  1  0  0  0  0
  1 31  1  0  0  0  0
  1 32  1  0  0  0  0
  1 33  1  0  0  0  0
  2  3  1  0  0  0  0
  3  4  2  0  0  0  0
  3 26  1  0  0  0  0
  4  5  1  0  0  0  0
  4 34  1  0  0  0  0
  5  6  1  0  0  0  0
  5 24  2  0  0  0  0
  6  7  2  0  0  0  0
  6  8  1  0  0  0  0
  8  9  1  0  0  0  0
  8 35  1  0  0  0  0
  9 10  2  0  0  0  0
  9 23  1  0  0  0  0
 10 11  1  0  0  0  0
 10 36  1  0  0  0  0
 11 12  2  0  0  0  0
 11 37  1  0  0  0  0
 12 13  1  0  0  0  0
 12 14  1  0  0  0  0
 13 38  1  0  0  0  0
 13 39  1  0  0  0  0
 13 40  1  0  0  0  0
 14 15  1  0  0  0  0
 14 23  2  0  0  0  0
 15 16  2  0  0  0  0
 15 17  1  0  0  0  0
 17 18  2  0  0  0  0
 17 22  1  0  0  0  0
 18 19  1  0  0  0  0
 18 41  1  0  0  0  0
 19 20  2  0  0  0  0
 19 42  1  0  0  0  0
 20 21  1  0  0  0  0
 20 43  1  0  0  0  0
 21 22  2  0  0  0  0
 21 44  1  0  0  0  0
 22 45  1  0  0  0  0
 23 46  1  0  0  0  0
 24 25  1  0  0  0  0
 24 47  1  0  0  0  0
 25 26  2  0  0  0  0
 25 30  1  0  0  0  0
 26 27  1  0  0  0  0
 27 28  1  0  0  0  0
 27 48  1  0  0  0  0
 28 29  2  0  0  0  0
 28 30  1  0  0  0  0
 30 49  1  0  0  0  0
M  END
$$$$
