
 OpenBabel01122422393D

 46 49  0  0  0  0  0  0  0  0999 V2000
    0.9711   -0.0599    0.0655 O   0  0  0  0  0  0  0  0  0  0  0  0
    2.2006   -0.0803    0.0565 C   0  0  0  0  0  0  0  0  0  0  0  0
    2.9295   -0.7176   -0.9230 N   0  0  0  0  0  0  0  0  0  0  0  0
    2.2682   -1.4712   -1.9656 C   0  0  0  0  0  0  0  0  0  0  0  0
    2.0511   -2.9024   -1.5690 C   0  0  0  0  0  0  0  0  0  0  0  0
    0.8946   -3.2945   -0.9105 C   0  0  0  0  0  0  0  0  0  0  0  0
    0.6433   -4.5591   -0.4999 N   0  0  0  0  0  0  0  0  0  0  0  0
    1.5814   -5.5063   -0.7161 C   0  0  0  0  0  0  0  0  0  0  0  0
    1.3960   -6.8229   -0.2887 C   0  0  0  0  0  0  0  0  0  0  0  0
    0.2614   -7.1677    0.3437 F   0  0  0  0  0  0  0  0  0  0  0  0
    2.3535   -7.8177   -0.4811 C   0  0  0  0  0  0  0  0  0  0  0  0
    3.5458   -7.5109   -1.1280 C   0  0  0  0  0  0  0  0  0  0  0  0
    3.7639   -6.2095   -1.5763 C   0  0  0  0  0  0  0  0  0  0  0  0
    2.7945   -5.2070   -1.3737 C   0  0  0  0  0  0  0  0  0  0  0  0
    3.0106   -3.8882   -1.8042 C   0  0  0  0  0  0  0  0  0  0  0  0
    2.9756    0.6019    1.1392 C   0  0  0  0  0  0  0  0  0  0  0  0
    2.2612    1.1744    2.1720 C   0  0  0  0  0  0  0  0  0  0  0  0
    3.0097    1.7875    3.1350 C   0  0  0  0  0  0  0  0  0  0  0  0
    4.3518    1.8553    3.0901 N   0  0  0  0  0  0  0  0  0  0  0  0
    4.9709    1.2707    2.0386 C   0  0  0  0  0  0  0  0  0  0  0  0
    6.4819    1.3989    1.9776 C   0  0  0  0  0  0  0  0  0  0  0  0
    7.1024    0.3163    2.6773 O   0  0  0  0  0  0  0  0  0  0  0  0
    8.4690    0.3408    2.7660 C   0  0  0  0  0  0  0  0  0  0  0  0
    9.3159    1.2830    2.1783 C   0  0  0  0  0  0  0  0  0  0  0  0
   10.7018    1.1889    2.3496 C   0  0  0  0  0  0  0  0  0  0  0  0
   11.2478    0.1594    3.1136 C   0  0  0  0  0  0  0  0  0  0  0  0
   10.4091   -0.7827    3.7031 C   0  0  0  0  0  0  0  0  0  0  0  0
    9.0265   -0.6937    3.5236 C   0  0  0  0  0  0  0  0  0  0  0  0
    4.3294    0.6292    1.0361 N   0  0  0  0  0  0  0  0  0  0  0  0
    3.9362   -0.7535   -0.8125 H   0  0  0  0  0  0  0  0  0  0  0  0
    2.8855   -1.4113   -2.8682 H   0  0  0  0  0  0  0  0  0  0  0  0
    1.3076   -1.0013   -2.2087 H   0  0  0  0  0  0  0  0  0  0  0  0
    0.1077   -2.5798   -0.6767 H   0  0  0  0  0  0  0  0  0  0  0  0
    2.1607   -8.8224   -0.1187 H   0  0  0  0  0  0  0  0  0  0  0  0
    4.3010   -8.2760   -1.2787 H   0  0  0  0  0  0  0  0  0  0  0  0
    4.6988   -5.9755   -2.0809 H   0  0  0  0  0  0  0  0  0  0  0  0
    3.9337   -3.6262   -2.3160 H   0  0  0  0  0  0  0  0  0  0  0  0
    1.1803    1.1400    2.2160 H   0  0  0  0  0  0  0  0  0  0  0  0
    2.5425    2.2603    3.9936 H   0  0  0  0  0  0  0  0  0  0  0  0
    6.7600    2.3566    2.4385 H   0  0  0  0  0  0  0  0  0  0  0  0
    6.7912    1.3961    0.9266 H   0  0  0  0  0  0  0  0  0  0  0  0
    8.9375    2.1059    1.5819 H   0  0  0  0  0  0  0  0  0  0  0  0
   11.3562    1.9249    1.8888 H   0  0  0  0  0  0  0  0  0  0  0  0
   12.3242    0.0940    3.2516 H   0  0  0  0  0  0  0  0  0  0  0  0
   10.8285   -1.5843    4.3056 H   0  0  0  0  0  0  0  0  0  0  0  0
    8.3777   -1.4344    3.9849 H   0  0  0  0  0  0  0  0  0  0  0  0
  1  2  2  0  0  0  0
  2  3  1  0  0  0  0
  2 16  1  0  0  0  0
  3  4  1  0  0  0  0
  3 30  1  0  0  0  0
  4  5  1  0  0  0  0
  4 31  1  0  0  0  0
  4 32  1  0  0  0  0
  5  6  2  0  0  0  0
  5 15  1  0  0  0  0
  6  7  1  0  0  0  0
  6 33  1  0  0  0  0
  7  8  2  0  0  0  0
  8  9  1  0  0  0  0
  8 14  1  0  0  0  0
  9 10  1  0  0  0  0
  9 11  2  0  0  0  0
 11 12  1  0  0  0  0
 11 34  1  0  0  0  0
 12 13  2  0  0  0  0
 12 35  1  0  0  0  0
 13 14  1  0  0  0  0
 13 36  1  0  0  0  0
 14 15  2  0  0  0  0
 15 37  1  0  0  0  0
 16 17  2  0  0  0  0
 16 29  1  0  0  0  0
 17 18  1  0  0  0  0
 17 38  1  0  0  0  0
 18 19  2  0  0  0  0
 18 39  1  0  0  0  0
 19 20  1  0  0  0  0
 20 21  1  0  0  0  0
 20 29  2  0  0  0  0
 21 22  1  0  0  0  0
 21 40  1  0  0  0  0
 21 41  1  0  0  0  0
 22 23  1  0  0  0  0
 23 24  2  0  0  0  0
 23 28  1  0  0  0  0
 24 25  1  0  0  0  0
 24 42  1  0  0  0  0
 25 26  2  0  0  0  0
 25 43  1  0  0  0  0
 26 27  1  0  0  0  0
 26 44  1  0  0  0  0
 27 28  2  0  0  0  0
 27 45  1  0  0  0  0
 28 46  1  0  0  0  0
M  END
$$$$
