
 OpenBabel01122422393D

 46 49  0  0  0  0  0  0  0  0999 V2000
    2.2830    1.6944    0.3541 C   0  0  0  0  0  0  0  0  0  0  0  0
    3.7206    1.8090    0.4109 N   0  0  0  0  0  0  0  0  0  0  0  0
    4.4392    2.9657    0.3930 C   0  0  0  0  0  0  0  0  0  0  0  0
    5.7382    2.5589    0.4331 C   0  0  0  0  0  0  0  0  0  0  0  0
    6.8267    3.3578    0.4288 N   0  0  0  0  0  0  0  0  0  0  0  0
    7.9692    2.6033    0.4698 C   0  0  0  0  0  0  0  0  0  0  0  0
    8.0675    1.1865    0.4912 C   0  0  0  0  0  0  0  0  0  0  0  0
    9.4243    0.6134    0.5615 C   0  0  0  0  0  0  0  0  0  0  0  0
   10.2854    1.2959    1.1092 O   0  0  0  0  0  0  0  0  0  0  0  0
    9.6164   -0.6205   -0.0446 N   0  0  0  0  0  0  0  0  0  0  0  0
   10.8189   -1.3586    0.0143 C   0  0  0  0  0  0  0  0  0  0  0  0
   11.8051   -1.0800    0.9622 C   0  0  0  0  0  0  0  0  0  0  0  0
   13.0047   -1.7842    0.9847 C   0  0  0  0  0  0  0  0  0  0  0  0
   13.2518   -2.7761    0.0418 C   0  0  0  0  0  0  0  0  0  0  0  0
   14.4355   -3.4578   -0.0433 O   0  0  0  0  0  0  0  0  0  0  0  0
   15.5590   -2.7642    0.5137 C   0  0  0  0  0  0  0  0  0  0  0  0
   16.8538   -3.3199   -0.0223 C   0  0  0  0  0  0  0  0  0  0  0  0
   18.0281   -3.2042    0.7368 C   0  0  0  0  0  0  0  0  0  0  0  0
   19.2428   -3.6722    0.2371 C   0  0  0  0  0  0  0  0  0  0  0  0
   19.2982   -4.2465   -1.0321 C   0  0  0  0  0  0  0  0  0  0  0  0
   18.1405   -4.3427   -1.8094 C   0  0  0  0  0  0  0  0  0  0  0  0
   18.1999   -4.9117   -3.1205 C   0  0  0  0  0  0  0  0  0  0  0  0
   18.2537   -5.3696   -4.1869 N   0  0  0  0  0  0  0  0  0  0  0  0
   16.9247   -3.8735   -1.3081 C   0  0  0  0  0  0  0  0  0  0  0  0
   12.2424   -3.1021   -0.8677 C   0  0  0  0  0  0  0  0  0  0  0  0
   12.4383   -4.0748   -1.7719 F   0  0  0  0  0  0  0  0  0  0  0  0
   11.0282   -2.4084   -0.8838 C   0  0  0  0  0  0  0  0  0  0  0  0
    6.9261    0.3699    0.5132 C   0  0  0  0  0  0  0  0  0  0  0  0
    5.7381    1.1154    0.4761 C   0  0  0  0  0  0  0  0  0  0  0  0
    4.4655    0.6809    0.4705 N   0  0  0  0  0  0  0  0  0  0  0  0
    1.8414    2.6917    0.2887 H   0  0  0  0  0  0  0  0  0  0  0  0
    1.9425    1.1912    1.2620 H   0  0  0  0  0  0  0  0  0  0  0  0
    2.0223    1.1116   -0.5328 H   0  0  0  0  0  0  0  0  0  0  0  0
    3.9879    3.9453    0.3495 H   0  0  0  0  0  0  0  0  0  0  0  0
    8.8793    3.2061    0.4862 H   0  0  0  0  0  0  0  0  0  0  0  0
    8.9004   -0.9629   -0.6746 H   0  0  0  0  0  0  0  0  0  0  0  0
   11.6744   -0.3114    1.7169 H   0  0  0  0  0  0  0  0  0  0  0  0
   13.7235   -1.5195    1.7528 H   0  0  0  0  0  0  0  0  0  0  0  0
   15.5388   -2.8846    1.6036 H   0  0  0  0  0  0  0  0  0  0  0  0
   15.5381   -1.6984    0.2487 H   0  0  0  0  0  0  0  0  0  0  0  0
   18.0030   -2.7443    1.7234 H   0  0  0  0  0  0  0  0  0  0  0  0
   20.1463   -3.5853    0.8356 H   0  0  0  0  0  0  0  0  0  0  0  0
   20.2495   -4.6118   -1.4136 H   0  0  0  0  0  0  0  0  0  0  0  0
   16.0249   -3.9380   -1.9198 H   0  0  0  0  0  0  0  0  0  0  0  0
   10.2860   -2.6827   -1.6274 H   0  0  0  0  0  0  0  0  0  0  0  0
    6.9315   -0.7069    0.5859 H   0  0  0  0  0  0  0  0  0  0  0  0
  1  2  1  0  0  0  0
  1 31  1  0  0  0  0
  1 32  1  0  0  0  0
  1 33  1  0  0  0  0
  2  3  1  0  0  0  0
  2 30  1  0  0  0  0
  3  4  2  0  0  0  0
  3 34  1  0  0  0  0
  4  5  1  0  0  0  0
  4 29  1  0  0  0  0
  5  6  2  0  0  0  0
  6  7  1  0  0  0  0
  6 35  1  0  0  0  0
  7  8  1  0  0  0  0
  7 28  2  0  0  0  0
  8  9  2  0  0  0  0
  8 10  1  0  0  0  0
 10 11  1  0  0  0  0
 10 36  1  0  0  0  0
 11 12  2  0  0  0  0
 11 27  1  0  0  0  0
 12 13  1  0  0  0  0
 12 37  1  0  0  0  0
 13 14  2  0  0  0  0
 13 38  1  0  0  0  0
 14 15  1  0  0  0  0
 14 25  1  0  0  0  0
 15 16  1  0  0  0  0
 16 17  1  0  0  0  0
 16 39  1  0  0  0  0
 16 40  1  0  0  0  0
 17 18  2  0  0  0  0
 17 24  1  0  0  0  0
 18 19  1  0  0  0  0
 18 41  1  0  0  0  0
 19 20  2  0  0  0  0
 19 42  1  0  0  0  0
 20 21  1  0  0  0  0
 20 43  1  0  0  0  0
 21 22  1  0  0  0  0
 21 24  2  0  0  0  0
 22 23  3  0  0  0  0
 24 44  1  0  0  0  0
 25 26  1  0  0  0  0
 25 27  2  0  0  0  0
 27 45  1  0  0  0  0
 28 29  1  0  0  0  0
 28 46  1  0  0  0  0
 29 30  2  0  0  0  0
M  END
$$$$
