
 OpenBabel01122422393D

 47 49  0  0  1  0  0  0  0  0999 V2000
    0.9637   -0.1102   -0.0147 C   0  0  0  0  0  0  0  0  0  0  0  0
    2.4871   -0.1410    0.0211 C   0  0  3  0  0  0  0  0  0  0  0  0
    2.9290   -0.2027    1.3897 O   0  0  0  0  0  0  0  0  0  0  0  0
    2.9618    0.9763    2.0571 C   0  0  0  0  0  0  0  0  0  0  0  0
    2.6417    2.0585    1.6041 O   0  0  0  0  0  0  0  0  0  0  0  0
    3.4527    0.7903    3.4525 C   0  0  0  0  0  0  0  0  0  0  0  0
    3.8430   -0.4663    3.9334 C   0  0  0  0  0  0  0  0  0  0  0  0
    4.3381   -0.6368    5.2399 C   0  0  0  0  0  0  0  0  0  0  0  0
    4.7658   -1.9592    5.7277 C   0  0  0  0  0  0  0  0  0  0  0  0
    5.3039   -2.9281    4.8784 C   0  0  0  0  0  0  0  0  0  0  0  0
    5.6752   -4.1628    5.3986 C   0  0  0  0  0  0  0  0  0  0  0  0
    5.5041   -4.4038    6.7542 C   0  0  0  0  0  0  0  0  0  0  0  0
    4.9695   -3.3939    7.5347 C   0  0  0  0  0  0  0  0  0  0  0  0
    4.6042   -2.1854    7.0553 N   0  0  0  0  0  0  0  0  0  0  0  0
    4.4139    0.4999    6.0635 C   0  0  0  0  0  0  0  0  0  0  0  0
    4.0174    1.7454    5.5880 C   0  0  0  0  0  0  0  0  0  0  0  0
    4.1085    2.8142    6.3903 F   0  0  0  0  0  0  0  0  0  0  0  0
    3.5392    1.9028    4.2926 C   0  0  0  0  0  0  0  0  0  0  0  0
    3.0059   -1.3820   -0.7319 C   0  0  0  0  0  0  0  0  0  0  0  0
    3.7275   -2.2285   -0.2063 O   0  0  0  0  0  0  0  0  0  0  0  0
    2.6299   -1.4560   -2.0614 N   0  0  0  0  0  0  0  0  0  0  0  0
    3.0115   -2.5729   -2.8959 C   0  0  0  0  0  0  0  0  0  0  0  0
    1.9951   -3.6779   -2.8496 C   0  0  0  0  0  0  0  0  0  0  0  0
    2.0935   -4.7010   -1.8952 C   0  0  0  0  0  0  0  0  0  0  0  0
    1.1495   -5.7300   -1.8573 C   0  0  0  0  0  0  0  0  0  0  0  0
    0.0923   -5.7449   -2.7667 C   0  0  0  0  0  0  0  0  0  0  0  0
   -0.0251   -4.7246   -3.7092 C   0  0  0  0  0  0  0  0  0  0  0  0
    0.9199   -3.7017   -3.7408 C   0  0  0  0  0  0  0  0  0  0  0  0
    0.7843   -2.7241   -4.6486 F   0  0  0  0  0  0  0  0  0  0  0  0
    0.5681    0.7566    0.5221 H   0  0  0  0  0  0  0  0  0  0  0  0
    0.5548   -1.0049    0.4680 H   0  0  0  0  0  0  0  0  0  0  0  0
    0.5794   -0.0720   -1.0374 H   0  0  0  0  0  0  0  0  0  0  0  0
    2.9208    0.7382   -0.4732 H   0  0  0  0  0  0  0  0  0  0  0  0
    3.7530   -1.3321    3.2800 H   0  0  0  0  0  0  0  0  0  0  0  0
    5.4465   -2.7354    3.8188 H   0  0  0  0  0  0  0  0  0  0  0  0
    6.0919   -4.9242    4.7461 H   0  0  0  0  0  0  0  0  0  0  0  0
    5.7787   -5.3567    7.1903 H   0  0  0  0  0  0  0  0  0  0  0  0
    4.8141   -3.5348    8.6007 H   0  0  0  0  0  0  0  0  0  0  0  0
    4.7913    0.4209    7.0817 H   0  0  0  0  0  0  0  0  0  0  0  0
    3.2433    2.8907    3.9535 H   0  0  0  0  0  0  0  0  0  0  0  0
    1.9105   -0.8443   -2.4231 H   0  0  0  0  0  0  0  0  0  0  0  0
    3.9926   -2.9466   -2.5828 H   0  0  0  0  0  0  0  0  0  0  0  0
    3.1270   -2.1972   -3.9191 H   0  0  0  0  0  0  0  0  0  0  0  0
    2.9101   -4.6975   -1.1740 H   0  0  0  0  0  0  0  0  0  0  0  0
    1.2407   -6.5197   -1.1149 H   0  0  0  0  0  0  0  0  0  0  0  0
   -0.6395   -6.5483   -2.7369 H   0  0  0  0  0  0  0  0  0  0  0  0
   -0.8462   -4.7204   -4.4189 H   0  0  0  0  0  0  0  0  0  0  0  0
  1  2  1  0  0  0  0
  1 30  1  0  0  0  0
  1 31  1  0  0  0  0
  1 32  1  0  0  0  0
  2  3  1  0  0  0  0
  2 19  1  0  0  0  0
  2 33  1  0  0  0  0
  3  4  1  0  0  0  0
  4  5  2  0  0  0  0
  4  6  1  0  0  0  0
  6  7  2  0  0  0  0
  6 18  1  0  0  0  0
  7  8  1  0  0  0  0
  7 34  1  0  0  0  0
  8  9  1  0  0  0  0
  8 15  2  0  0  0  0
  9 10  2  0  0  0  0
  9 14  1  0  0  0  0
 10 11  1  0  0  0  0
 10 35  1  0  0  0  0
 11 12  2  0  0  0  0
 11 36  1  0  0  0  0
 12 13  1  0  0  0  0
 12 37  1  0  0  0  0
 13 14  2  0  0  0  0
 13 38  1  0  0  0  0
 15 16  1  0  0  0  0
 15 39  1  0  0  0  0
 16 17  1  0  0  0  0
 16 18  2  0  0  0  0
 18 40  1  0  0  0  0
 19 20  2  0  0  0  0
 19 21  1  0  0  0  0
 21 22  1  0  0  0  0
 21 41  1  0  0  0  0
 22 23  1  0  0  0  0
 22 42  1  0  0  0  0
 22 43  1  0  0  0  0
 23 24  2  0  0  0  0
 23 28  1  0  0  0  0
 24 25  1  0  0  0  0
 24 44  1  0  0  0  0
 25 26  2  0  0  0  0
 25 45  1  0  0  0  0
 26 27  1  0  0  0  0
 26 46  1  0  0  0  0
 27 28  2  0  0  0  0
 27 47  1  0  0  0  0
 28 29  1  0  0  0  0
M  END
$$$$
