
 OpenBabel01122422393D

 44 47  0  0  0  0  0  0  0  0999 V2000
    2.3764    0.3953    2.3189 O   0  0  0  0  0  0  0  0  0  0  0  0
    2.8549    0.2234    1.1972 C   0  0  0  0  0  0  0  0  0  0  0  0
    2.9470    1.1983    0.2079 N   0  0  0  0  0  0  0  0  0  0  0  0
    2.3275    2.4771    0.2993 C   0  0  0  0  0  0  0  0  0  0  0  0
    1.2341    2.6575    1.1640 C   0  0  0  0  0  0  0  0  0  0  0  0
    0.6334    3.9024    1.4181 C   0  0  0  0  0  0  0  0  0  0  0  0
   -0.4340    4.0217    2.4397 C   0  0  0  0  0  0  0  0  0  0  0  0
   -0.4327    3.2019    3.5886 C   0  0  0  0  0  0  0  0  0  0  0  0
   -1.4240    3.3054    4.5673 C   0  0  0  0  0  0  0  0  0  0  0  0
   -2.4381    4.2444    4.4276 C   0  0  0  0  0  0  0  0  0  0  0  0
   -2.4686    5.0643    3.3030 C   0  0  0  0  0  0  0  0  0  0  0  0
   -1.4816    4.9490    2.3171 C   0  0  0  0  0  0  0  0  0  0  0  0
    1.1096    4.9938    0.6837 C   0  0  0  0  0  0  0  0  0  0  0  0
    2.1339    4.8359   -0.2587 C   0  0  0  0  0  0  0  0  0  0  0  0
    2.7575    3.5868   -0.4436 C   0  0  0  0  0  0  0  0  0  0  0  0
    3.8557    3.4654   -1.4295 C   0  0  0  0  0  0  0  0  0  0  0  0
    4.0215    2.4676   -2.1133 O   0  0  0  0  0  0  0  0  0  0  0  0
    4.6694    4.5420   -1.4882 O   0  0  0  0  0  0  0  0  0  0  0  0
    3.3834   -1.1345    0.8787 C   0  0  0  0  0  0  0  0  0  0  0  0
    3.0784   -2.1689    1.7572 C   0  0  0  0  0  0  0  0  0  0  0  0
    3.5024   -3.4507    1.4471 C   0  0  0  0  0  0  0  0  0  0  0  0
    4.2284   -3.6672    0.2742 C   0  0  0  0  0  0  0  0  0  0  0  0
    4.6457   -4.9604   -0.0682 C   0  0  0  0  0  0  0  0  0  0  0  0
    5.3748   -5.1354   -1.2298 C   0  0  0  0  0  0  0  0  0  0  0  0
    5.7255   -4.1217   -2.0408 N   0  0  0  0  0  0  0  0  0  0  0  0
    5.2947   -2.8918   -1.6723 C   0  0  0  0  0  0  0  0  0  0  0  0
    5.7186   -1.9262   -2.5357 O   0  0  0  0  0  0  0  0  0  0  0  0
    4.5285   -2.5611   -0.5519 C   0  0  0  0  0  0  0  0  0  0  0  0
    4.0989   -1.2989   -0.2577 N   0  0  0  0  0  0  0  0  0  0  0  0
    3.5639    1.0052   -0.5871 H   0  0  0  0  0  0  0  0  0  0  0  0
    0.8018    1.7886    1.6542 H   0  0  0  0  0  0  0  0  0  0  0  0
    0.3562    2.4662    3.7450 H   0  0  0  0  0  0  0  0  0  0  0  0
   -1.3942    2.6539    5.4369 H   0  0  0  0  0  0  0  0  0  0  0  0
   -3.2036    4.3357    5.1929 H   0  0  0  0  0  0  0  0  0  0  0  0
   -3.2639    5.7956    3.1879 H   0  0  0  0  0  0  0  0  0  0  0  0
   -1.5534    5.5897    1.4424 H   0  0  0  0  0  0  0  0  0  0  0  0
    0.6881    5.9854    0.8351 H   0  0  0  0  0  0  0  0  0  0  0  0
    2.4275    5.7033   -0.8466 H   0  0  0  0  0  0  0  0  0  0  0  0
    4.5565    5.1835   -0.7628 H   0  0  0  0  0  0  0  0  0  0  0  0
    2.5038   -1.9848    2.6605 H   0  0  0  0  0  0  0  0  0  0  0  0
    3.2594   -4.2672    2.1229 H   0  0  0  0  0  0  0  0  0  0  0  0
    4.4041   -5.8183    0.5518 H   0  0  0  0  0  0  0  0  0  0  0  0
    5.7032   -6.1234   -1.5398 H   0  0  0  0  0  0  0  0  0  0  0  0
    6.2441   -2.4653   -3.1512 H   0  0  0  0  0  0  0  0  0  0  0  0
  1  2  2  0  0  0  0
  2  3  1  0  0  0  0
  2 19  1  0  0  0  0
  3  4  1  0  0  0  0
  3 30  1  0  0  0  0
  4  5  2  0  0  0  0
  4 15  1  0  0  0  0
  5  6  1  0  0  0  0
  5 31  1  0  0  0  0
  6  7  1  0  0  0  0
  6 13  2  0  0  0  0
  7  8  2  0  0  0  0
  7 12  1  0  0  0  0
  8  9  1  0  0  0  0
  8 32  1  0  0  0  0
  9 10  2  0  0  0  0
  9 33  1  0  0  0  0
 10 11  1  0  0  0  0
 10 34  1  0  0  0  0
 11 12  2  0  0  0  0
 11 35  1  0  0  0  0
 12 36  1  0  0  0  0
 13 14  1  0  0  0  0
 13 37  1  0  0  0  0
 14 15  2  0  0  0  0
 14 38  1  0  0  0  0
 15 16  1  0  0  0  0
 16 17  2  0  0  0  0
 16 18  1  0  0  0  0
 18 39  1  0  0  0  0
 19 20  2  0  0  0  0
 19 29  1  0  0  0  0
 20 21  1  0  0  0  0
 20 40  1  0  0  0  0
 21 22  2  0  0  0  0
 21 41  1  0  0  0  0
 22 23  1  0  0  0  0
 22 28  1  0  0  0  0
 23 24  2  0  0  0  0
 23 42  1  0  0  0  0
 24 25  1  0  0  0  0
 24 43  1  0  0  0  0
 25 26  2  0  0  0  0
 26 27  1  0  0  0  0
 26 28  1  0  0  0  0
 27 44  1  0  0  0  0
 28 29  2  0  0  0  0
M  END
$$$$
