
 OpenBabel01122422353D

 45 48  0  0  0  0  0  0  0  0999 V2000
    1.2160   -0.8210    1.3058 C   0  0  0  0  0  0  0  0  0  0  0  0
    2.6247   -0.6909    1.0900 O   0  0  0  0  0  0  0  0  0  0  0  0
    3.2162   -1.7637    0.5052 C   0  0  0  0  0  0  0  0  0  0  0  0
    2.6501   -2.7949    0.1689 O   0  0  0  0  0  0  0  0  0  0  0  0
    4.6773   -1.5009    0.3269 C   0  0  0  0  0  0  0  0  0  0  0  0
    5.4192   -2.4349   -0.3169 C   0  0  0  0  0  0  0  0  0  0  0  0
    6.8216   -2.2289   -0.4985 C   0  0  0  0  0  0  0  0  0  0  0  0
    7.7690   -2.9331   -1.0844 N   0  0  0  0  0  0  0  0  0  0  0  0
    8.9000   -2.1969   -0.8384 C   0  0  0  0  0  0  0  0  0  0  0  0
   10.1131   -2.6732   -1.2618 N   0  0  0  0  0  0  0  0  0  0  0  0
   11.3150   -2.0985   -0.9052 C   0  0  0  0  0  0  0  0  0  0  0  0
   11.4783   -1.1004   -0.2098 O   0  0  0  0  0  0  0  0  0  0  0  0
   12.5462   -2.7705   -1.4038 C   0  0  0  0  0  0  0  0  0  0  0  0
   13.7067   -2.0064   -1.5793 C   0  0  0  0  0  0  0  0  0  0  0  0
   14.8934   -2.5994   -2.0362 C   0  0  0  0  0  0  0  0  0  0  0  0
   14.9704   -3.9801   -2.2952 C   0  0  0  0  0  0  0  0  0  0  0  0
   16.2191   -4.6256   -2.8045 C   0  0  0  0  0  0  0  0  0  0  0  0
   17.4833   -4.1458   -2.3920 C   0  0  0  0  0  0  0  0  0  0  0  0
   18.6793   -4.7500   -2.8010 C   0  0  0  0  0  0  0  0  0  0  0  0
   18.6508   -5.8734   -3.6151 C   0  0  0  0  0  0  0  0  0  0  0  0
   17.4282   -6.3629   -4.0596 C   0  0  0  0  0  0  0  0  0  0  0  0
   16.2248   -5.7334   -3.6928 C   0  0  0  0  0  0  0  0  0  0  0  0
   15.0295   -6.2562   -4.2959 C   0  0  0  0  0  0  0  0  0  0  0  0
   14.0699   -6.7021   -4.7741 N   0  0  0  0  0  0  0  0  0  0  0  0
   13.8096   -4.7325   -2.0214 C   0  0  0  0  0  0  0  0  0  0  0  0
   12.6052   -4.1431   -1.6193 C   0  0  0  0  0  0  0  0  0  0  0  0
    8.6944   -1.0622   -0.1832 N   0  0  0  0  0  0  0  0  0  0  0  0
    7.3751   -1.0645    0.0345 N   0  0  0  0  0  0  0  0  0  0  0  0
    6.6221   -0.0978    0.6840 C   0  0  0  0  0  0  0  0  0  0  0  0
    5.3033   -0.2773    0.8412 C   0  0  0  0  0  0  0  0  0  0  0  0
    0.8491    0.1287    1.7053 H   0  0  0  0  0  0  0  0  0  0  0  0
    1.0151   -1.6068    2.0401 H   0  0  0  0  0  0  0  0  0  0  0  0
    0.6970   -1.0222    0.3638 H   0  0  0  0  0  0  0  0  0  0  0  0
    4.9846   -3.3563   -0.6963 H   0  0  0  0  0  0  0  0  0  0  0  0
   10.0557   -3.4964   -1.8388 H   0  0  0  0  0  0  0  0  0  0  0  0
   13.6910   -0.9392   -1.3592 H   0  0  0  0  0  0  0  0  0  0  0  0
   15.7555   -1.9505   -2.1781 H   0  0  0  0  0  0  0  0  0  0  0  0
   17.5622   -3.2882   -1.7246 H   0  0  0  0  0  0  0  0  0  0  0  0
   19.6338   -4.3455   -2.4711 H   0  0  0  0  0  0  0  0  0  0  0  0
   19.5750   -6.3627   -3.9127 H   0  0  0  0  0  0  0  0  0  0  0  0
   17.4111   -7.2384   -4.7076 H   0  0  0  0  0  0  0  0  0  0  0  0
   13.8132   -5.8170   -2.1052 H   0  0  0  0  0  0  0  0  0  0  0  0
   11.7506   -4.7889   -1.4432 H   0  0  0  0  0  0  0  0  0  0  0  0
    7.1626    0.7693    1.0372 H   0  0  0  0  0  0  0  0  0  0  0  0
    4.7026    0.4700    1.3474 H   0  0  0  0  0  0  0  0  0  0  0  0
  1  2  1  0  0  0  0
  1 31  1  0  0  0  0
  1 32  1  0  0  0  0
  1 33  1  0  0  0  0
  2  3  1  0  0  0  0
  3  4  2  0  0  0  0
  3  5  1  0  0  0  0
  5  6  2  0  0  0  0
  5 30  1  0  0  0  0
  6  7  1  0  0  0  0
  6 34  1  0  0  0  0
  7  8  2  0  0  0  0
  7 28  1  0  0  0  0
  8  9  1  0  0  0  0
  9 10  1  0  0  0  0
  9 27  2  0  0  0  0
 10 11  1  0  0  0  0
 10 35  1  0  0  0  0
 11 12  2  0  0  0  0
 11 13  1  0  0  0  0
 13 14  2  0  0  0  0
 13 26  1  0  0  0  0
 14 15  1  0  0  0  0
 14 36  1  0  0  0  0
 15 16  2  0  0  0  0
 15 37  1  0  0  0  0
 16 17  1  0  0  0  0
 16 25  1  0  0  0  0
 17 18  2  0  0  0  0
 17 22  1  0  0  0  0
 18 19  1  0  0  0  0
 18 38  1  0  0  0  0
 19 20  2  0  0  0  0
 19 39  1  0  0  0  0
 20 21  1  0  0  0  0
 20 40  1  0  0  0  0
 21 22  2  0  0  0  0
 21 41  1  0  0  0  0
 22 23  1  0  0  0  0
 23 24  3  0  0  0  0
 25 26  2  0  0  0  0
 25 42  1  0  0  0  0
 26 43  1  0  0  0  0
 27 28  1  0  0  0  0
 28 29  1  0  0  0  0
 29 30  2  0  0  0  0
 29 44  1  0  0  0  0
 30 45  1  0  0  0  0
M  END
$$$$
