
 OpenBabel01122422393D

 41 44  0  0  0  0  0  0  0  0999 V2000
    0.9117    0.2503   -0.2087 O   0  0  0  0  0  0  0  0  0  0  0  0
    2.1081    0.0375   -0.1068 C   0  0  0  0  0  0  0  0  0  0  0  0
    2.8245   -0.7437   -0.9616 N   0  0  0  0  0  0  0  0  0  0  0  0
    4.1696   -0.9483   -0.9113 C   0  0  0  0  0  0  0  0  0  0  0  0
    4.9539   -0.4962    0.0691 N   0  0  0  0  0  0  0  0  0  0  0  0
    6.1940   -0.8178   -0.3675 N   0  0  0  0  0  0  0  0  0  0  0  0
    7.3333   -0.3968    0.3600 C   0  0  0  0  0  0  0  0  0  0  0  0
    8.6263   -0.5929   -0.1383 C   0  0  0  0  0  0  0  0  0  0  0  0
    9.7247   -0.1083    0.5813 C   0  0  0  0  0  0  0  0  0  0  0  0
    9.5335    0.5592    1.7886 C   0  0  0  0  0  0  0  0  0  0  0  0
   10.5941    1.0297    2.4582 F   0  0  0  0  0  0  0  0  0  0  0  0
    8.2545    0.7414    2.2919 C   0  0  0  0  0  0  0  0  0  0  0  0
    8.0586    1.3855    3.4490 F   0  0  0  0  0  0  0  0  0  0  0  0
    7.1533    0.2653    1.5891 C   0  0  0  0  0  0  0  0  0  0  0  0
    6.0838   -1.4856   -1.5617 C   0  0  0  0  0  0  0  0  0  0  0  0
    4.8176   -1.5922   -1.9097 N   0  0  0  0  0  0  0  0  0  0  0  0
    2.8958    0.6259    0.9238 N   0  0  0  0  0  0  0  0  0  0  0  0
    2.4607    1.4969    1.8937 C   0  0  0  0  0  0  0  0  0  0  0  0
    1.2016    1.9780    2.1243 C   0  0  0  0  0  0  0  0  0  0  0  0
    1.3281    2.8475    3.2409 C   0  0  0  0  0  0  0  0  0  0  0  0
    0.2721    3.6295    3.8732 C   0  0  0  0  0  0  0  0  0  0  0  0
   -0.8434    4.0330    3.1322 C   0  0  0  0  0  0  0  0  0  0  0  0
   -1.8458    4.7726    3.7476 C   0  0  0  0  0  0  0  0  0  0  0  0
   -2.9082    5.1551    3.0272 F   0  0  0  0  0  0  0  0  0  0  0  0
   -1.7603    5.1235    5.0885 C   0  0  0  0  0  0  0  0  0  0  0  0
   -0.6531    4.7288    5.8342 C   0  0  0  0  0  0  0  0  0  0  0  0
    0.3617    3.9870    5.2265 C   0  0  0  0  0  0  0  0  0  0  0  0
    2.5951    2.8798    3.6835 N   0  0  0  0  0  0  0  0  0  0  0  0
    3.2564    2.0719    2.8470 N   0  0  0  0  0  0  0  0  0  0  0  0
    2.3338   -1.1375   -1.7500 H   0  0  0  0  0  0  0  0  0  0  0  0
    8.8173   -1.0961   -1.0818 H   0  0  0  0  0  0  0  0  0  0  0  0
   10.7353   -0.2375    0.2039 H   0  0  0  0  0  0  0  0  0  0  0  0
    6.1729    0.4255    2.0257 H   0  0  0  0  0  0  0  0  0  0  0  0
    6.9282   -1.8489   -2.1286 H   0  0  0  0  0  0  0  0  0  0  0  0
    3.8825    0.3760    0.9182 H   0  0  0  0  0  0  0  0  0  0  0  0
    0.2983    1.7467    1.5818 H   0  0  0  0  0  0  0  0  0  0  0  0
   -0.9527    3.7943    2.0789 H   0  0  0  0  0  0  0  0  0  0  0  0
   -2.5588    5.7023    5.5406 H   0  0  0  0  0  0  0  0  0  0  0  0
   -0.5781    4.9972    6.8839 H   0  0  0  0  0  0  0  0  0  0  0  0
    1.2245    3.6833    5.8180 H   0  0  0  0  0  0  0  0  0  0  0  0
    4.2543    1.9643    2.9874 H   0  0  0  0  0  0  0  0  0  0  0  0
  1  2  2  0  0  0  0
  2  3  1  0  0  0  0
  2 17  1  0  0  0  0
  3  4  1  0  0  0  0
  3 30  1  0  0  0  0
  4  5  2  0  0  0  0
  4 16  1  0  0  0  0
  5  6  1  0  0  0  0
  6  7  1  0  0  0  0
  6 15  1  0  0  0  0
  7  8  2  0  0  0  0
  7 14  1  0  0  0  0
  8  9  1  0  0  0  0
  8 31  1  0  0  0  0
  9 10  2  0  0  0  0
  9 32  1  0  0  0  0
 10 11  1  0  0  0  0
 10 12  1  0  0  0  0
 12 13  1  0  0  0  0
 12 14  2  0  0  0  0
 14 33  1  0  0  0  0
 15 16  2  0  0  0  0
 15 34  1  0  0  0  0
 17 18  1  0  0  0  0
 17 35  1  0  0  0  0
 18 19  2  0  0  0  0
 18 29  1  0  0  0  0
 19 20  1  0  0  0  0
 19 36  1  0  0  0  0
 20 21  1  0  0  0  0
 20 28  2  0  0  0  0
 21 22  2  0  0  0  0
 21 27  1  0  0  0  0
 22 23  1  0  0  0  0
 22 37  1  0  0  0  0
 23 24  1  0  0  0  0
 23 25  2  0  0  0  0
 25 26  1  0  0  0  0
 25 38  1  0  0  0  0
 26 27  2  0  0  0  0
 26 39  1  0  0  0  0
 27 40  1  0  0  0  0
 28 29  1  0  0  0  0
 29 41  1  0  0  0  0
M  END
$$$$
