
 OpenBabel01122422393D

 41 44  0  0  0  0  0  0  0  0999 V2000
    1.2695    0.7611   -0.5675 O   0  0  0  0  0  0  0  0  0  0  0  0
    2.2433    0.1600   -0.1306 C   0  0  0  0  0  0  0  0  0  0  0  0
    2.6728   -1.1068   -0.5063 N   0  0  0  0  0  0  0  0  0  0  0  0
    2.0384   -1.9329   -1.4627 C   0  0  0  0  0  0  0  0  0  0  0  0
    1.0464   -1.4632   -2.3230 C   0  0  0  0  0  0  0  0  0  0  0  0
    0.3657   -2.3295   -3.1773 C   0  0  0  0  0  0  0  0  0  0  0  0
    0.6703   -3.6921   -3.1851 C   0  0  0  0  0  0  0  0  0  0  0  0
   -0.1101   -4.5890   -3.9676 N   0  0  0  0  0  0  0  0  0  0  0  0
   -1.1208   -4.2665   -4.8462 C   0  0  0  0  0  0  0  0  0  0  0  0
   -1.7042   -5.4431   -5.2444 C   0  0  0  0  0  0  0  0  0  0  0  0
   -0.9732   -6.4608   -4.5864 C   0  0  0  0  0  0  0  0  0  0  0  0
   -1.2587   -7.9349   -4.6529 C   0  0  0  0  0  0  0  0  0  0  0  0
   -2.3781   -8.1941   -5.3869 F   0  0  0  0  0  0  0  0  0  0  0  0
   -0.2511   -8.6387   -5.2319 F   0  0  0  0  0  0  0  0  0  0  0  0
   -1.4758   -8.4787   -3.4260 F   0  0  0  0  0  0  0  0  0  0  0  0
    0.0354   -5.9343   -3.8583 N   0  0  0  0  0  0  0  0  0  0  0  0
    1.7076   -4.1646   -2.3719 C   0  0  0  0  0  0  0  0  0  0  0  0
    2.3986   -3.2842   -1.5251 C   0  0  0  0  0  0  0  0  0  0  0  0
    3.0317    0.8246    0.9275 C   0  0  0  0  0  0  0  0  0  0  0  0
    4.4203    0.7931    0.8484 C   0  0  0  0  0  0  0  0  0  0  0  0
    5.2415    1.3810    1.7438 N   0  0  0  0  0  0  0  0  0  0  0  0
    4.6348    2.0603    2.7322 C   0  0  0  0  0  0  0  0  0  0  0  0
    5.5197    2.6244    3.5953 O   0  0  0  0  0  0  0  0  0  0  0  0
    3.2553    2.2042    2.9104 C   0  0  0  0  0  0  0  0  0  0  0  0
    2.6899    2.9528    3.9580 C   0  0  0  0  0  0  0  0  0  0  0  0
    1.3146    3.0346    4.0552 C   0  0  0  0  0  0  0  0  0  0  0  0
    0.4748    2.4230    3.2003 N   0  0  0  0  0  0  0  0  0  0  0  0
    1.0374    1.7106    2.1919 C   0  0  0  0  0  0  0  0  0  0  0  0
    2.4215    1.5604    1.9779 C   0  0  0  0  0  0  0  0  0  0  0  0
    3.4055   -1.5479    0.0368 H   0  0  0  0  0  0  0  0  0  0  0  0
    0.7557   -0.4186   -2.3495 H   0  0  0  0  0  0  0  0  0  0  0  0
   -0.4243   -1.8991   -3.7834 H   0  0  0  0  0  0  0  0  0  0  0  0
   -1.3661   -3.2480   -5.0986 H   0  0  0  0  0  0  0  0  0  0  0  0
   -2.5552   -5.5550   -5.9017 H   0  0  0  0  0  0  0  0  0  0  0  0
    1.9793   -5.2212   -2.3709 H   0  0  0  0  0  0  0  0  0  0  0  0
    3.1856   -3.6844   -0.8924 H   0  0  0  0  0  0  0  0  0  0  0  0
    4.9329    0.2996    0.0264 H   0  0  0  0  0  0  0  0  0  0  0  0
    6.3581    2.3340    3.1921 H   0  0  0  0  0  0  0  0  0  0  0  0
    3.3157    3.4669    4.6818 H   0  0  0  0  0  0  0  0  0  0  0  0
    0.8384    3.6095    4.8438 H   0  0  0  0  0  0  0  0  0  0  0  0
    0.3016    1.2486    1.5368 H   0  0  0  0  0  0  0  0  0  0  0  0
  1  2  2  0  0  0  0
  2  3  1  0  0  0  0
  2 19  1  0  0  0  0
  3  4  1  0  0  0  0
  3 30  1  0  0  0  0
  4  5  2  0  0  0  0
  4 18  1  0  0  0  0
  5  6  1  0  0  0  0
  5 31  1  0  0  0  0
  6  7  2  0  0  0  0
  6 32  1  0  0  0  0
  7  8  1  0  0  0  0
  7 17  1  0  0  0  0
  8  9  1  0  0  0  0
  8 16  1  0  0  0  0
  9 10  2  0  0  0  0
  9 33  1  0  0  0  0
 10 11  1  0  0  0  0
 10 34  1  0  0  0  0
 11 12  1  0  0  0  0
 11 16  2  0  0  0  0
 12 13  1  0  0  0  0
 12 14  1  0  0  0  0
 12 15  1  0  0  0  0
 17 18  2  0  0  0  0
 17 35  1  0  0  0  0
 18 36  1  0  0  0  0
 19 20  2  0  0  0  0
 19 29  1  0  0  0  0
 20 21  1  0  0  0  0
 20 37  1  0  0  0  0
 21 22  2  0  0  0  0
 22 23  1  0  0  0  0
 22 24  1  0  0  0  0
 23 38  1  0  0  0  0
 24 25  2  0  0  0  0
 24 29  1  0  0  0  0
 25 26  1  0  0  0  0
 25 39  1  0  0  0  0
 26 27  2  0  0  0  0
 26 40  1  0  0  0  0
 27 28  1  0  0  0  0
 28 29  2  0  0  0  0
 28 41  1  0  0  0  0
M  END
$$$$
