
 OpenBabel01122422393D

 47 50  0  0  0  0  0  0  0  0999 V2000
    3.3831    2.5962   -0.1327 O   0  0  0  0  0  0  0  0  0  0  0  0
    2.6632    1.6982   -0.5692 C   0  0  0  0  0  0  0  0  0  0  0  0
    1.1489    1.7858   -0.5141 C   0  0  0  0  0  0  0  0  0  0  0  0
    0.6698    2.5212   -1.7281 C   0  0  0  0  0  0  0  0  0  0  0  0
    0.4965    3.8472   -1.7621 C   0  0  0  0  0  0  0  0  0  0  0  0
    0.0552    4.4676   -2.9991 C   0  0  0  0  0  0  0  0  0  0  0  0
   -0.1045    5.8545   -3.0834 C   0  0  0  0  0  0  0  0  0  0  0  0
   -0.5136    6.4439   -4.2817 C   0  0  0  0  0  0  0  0  0  0  0  0
   -0.7698    5.6502   -5.3985 C   0  0  0  0  0  0  0  0  0  0  0  0
   -0.6190    4.2651   -5.3215 C   0  0  0  0  0  0  0  0  0  0  0  0
   -0.2022    3.6732   -4.1175 C   0  0  0  0  0  0  0  0  0  0  0  0
   -0.0252    2.2027   -4.0442 C   0  0  0  0  0  0  0  0  0  0  0  0
   -0.2477    1.4829   -5.0111 O   0  0  0  0  0  0  0  0  0  0  0  0
    0.4018    1.6962   -2.8468 O   0  0  0  0  0  0  0  0  0  0  0  0
    3.1411    0.5478   -1.1586 N   0  0  0  0  0  0  0  0  0  0  0  0
    4.5499    0.2571   -1.2614 C   0  0  0  0  0  0  0  0  0  0  0  0
    5.0538    0.1558   -2.6826 C   0  0  0  0  0  0  0  0  0  0  0  0
    6.0581    1.0629   -3.0777 C   0  0  0  0  0  0  0  0  0  0  0  0
    6.6850    0.9629   -4.3193 C   0  0  0  0  0  0  0  0  0  0  0  0
    6.3581   -0.0794   -5.1740 C   0  0  0  0  0  0  0  0  0  0  0  0
    5.3728   -0.9900   -4.8027 C   0  0  0  0  0  0  0  0  0  0  0  0
    4.6529   -0.8377   -3.6025 C   0  0  0  0  0  0  0  0  0  0  0  0
    3.5871   -1.6610   -3.2922 O   0  0  0  0  0  0  0  0  0  0  0  0
    2.8255   -2.1875   -4.3323 C   0  0  0  0  0  0  0  0  0  0  0  0
    2.4731   -1.4440   -5.4593 C   0  0  0  0  0  0  0  0  0  0  0  0
    1.7476   -2.0580   -6.4792 C   0  0  0  0  0  0  0  0  0  0  0  0
    1.3427   -3.3748   -6.3216 C   0  0  0  0  0  0  0  0  0  0  0  0
    1.6941   -4.0273   -5.1522 C   0  0  0  0  0  0  0  0  0  0  0  0
    2.4254   -3.4674   -4.1557 N   0  0  0  0  0  0  0  0  0  0  0  0
    0.8680    2.3084    0.4084 H   0  0  0  0  0  0  0  0  0  0  0  0
    0.7037    0.7871   -0.4525 H   0  0  0  0  0  0  0  0  0  0  0  0
    0.7074    4.4718   -0.8998 H   0  0  0  0  0  0  0  0  0  0  0  0
    0.0947    6.4903   -2.2233 H   0  0  0  0  0  0  0  0  0  0  0  0
   -0.6329    7.5225   -4.3429 H   0  0  0  0  0  0  0  0  0  0  0  0
   -1.0939    6.1089   -6.3334 H   0  0  0  0  0  0  0  0  0  0  0  0
   -0.8212    3.6470   -6.1927 H   0  0  0  0  0  0  0  0  0  0  0  0
    2.4973   -0.1597   -1.4840 H   0  0  0  0  0  0  0  0  0  0  0  0
    4.7402   -0.6844   -0.7349 H   0  0  0  0  0  0  0  0  0  0  0  0
    5.1153    1.0252   -0.7185 H   0  0  0  0  0  0  0  0  0  0  0  0
    6.3716    1.8593   -2.4023 H   0  0  0  0  0  0  0  0  0  0  0  0
    7.4487    1.6818   -4.6041 H   0  0  0  0  0  0  0  0  0  0  0  0
    6.8592   -0.1849   -6.1317 H   0  0  0  0  0  0  0  0  0  0  0  0
    5.1576   -1.8134   -5.4804 H   0  0  0  0  0  0  0  0  0  0  0  0
    2.7774   -0.4088   -5.5722 H   0  0  0  0  0  0  0  0  0  0  0  0
    1.4990   -1.5067   -7.3822 H   0  0  0  0  0  0  0  0  0  0  0  0
    0.7581   -3.8761   -7.0884 H   0  0  0  0  0  0  0  0  0  0  0  0
    1.3875   -5.0559   -4.9809 H   0  0  0  0  0  0  0  0  0  0  0  0
  1  2  2  0  0  0  0
  2  3  1  0  0  0  0
  2 15  1  0  0  0  0
  3  4  1  0  0  0  0
  3 30  1  0  0  0  0
  3 31  1  0  0  0  0
  4  5  2  0  0  0  0
  4 14  1  0  0  0  0
  5  6  1  0  0  0  0
  5 32  1  0  0  0  0
  6  7  2  0  0  0  0
  6 11  1  0  0  0  0
  7  8  1  0  0  0  0
  7 33  1  0  0  0  0
  8  9  2  0  0  0  0
  8 34  1  0  0  0  0
  9 10  1  0  0  0  0
  9 35  1  0  0  0  0
 10 11  2  0  0  0  0
 10 36  1  0  0  0  0
 11 12  1  0  0  0  0
 12 13  2  0  0  0  0
 12 14  1  0  0  0  0
 15 16  1  0  0  0  0
 15 37  1  0  0  0  0
 16 17  1  0  0  0  0
 16 38  1  0  0  0  0
 16 39  1  0  0  0  0
 17 18  2  0  0  0  0
 17 22  1  0  0  0  0
 18 19  1  0  0  0  0
 18 40  1  0  0  0  0
 19 20  2  0  0  0  0
 19 41  1  0  0  0  0
 20 21  1  0  0  0  0
 20 42  1  0  0  0  0
 21 22  2  0  0  0  0
 21 43  1  0  0  0  0
 22 23  1  0  0  0  0
 23 24  1  0  0  0  0
 24 25  2  0  0  0  0
 24 29  1  0  0  0  0
 25 26  1  0  0  0  0
 25 44  1  0  0  0  0
 26 27  2  0  0  0  0
 26 45  1  0  0  0  0
 27 28  1  0  0  0  0
 27 46  1  0  0  0  0
 28 29  2  0  0  0  0
 28 47  1  0  0  0  0
M  END
$$$$
