
 OpenBabel01122422393D

 52 55  0  0  0  0  0  0  0  0999 V2000
    1.4597   -0.2368    4.7347 C   0  0  0  0  0  0  0  0  0  0  0  0
    2.8587   -0.1586    4.4108 N   0  0  0  0  0  0  0  0  0  0  0  0
    3.2909    0.3970    3.2245 C   0  0  0  0  0  0  0  0  0  0  0  0
    2.5347    0.9110    2.4067 O   0  0  0  0  0  0  0  0  0  0  0  0
    4.7727    0.3496    2.9908 C   0  0  0  0  0  0  0  0  0  0  0  0
    5.2886    0.8987    1.8237 C   0  0  0  0  0  0  0  0  0  0  0  0
    6.6757    0.9855    1.6822 C   0  0  0  0  0  0  0  0  0  0  0  0
    7.2967    1.6252    0.6139 O   0  0  0  0  0  0  0  0  0  0  0  0
    6.7572    2.8255    0.1630 C   0  0  0  0  0  0  0  0  0  0  0  0
    5.9922    3.6392    1.0281 C   0  0  0  0  0  0  0  0  0  0  0  0
    5.2752    4.7414    0.5626 C   0  0  0  0  0  0  0  0  0  0  0  0
    4.2955    5.4476    1.4468 C   0  0  0  0  0  0  0  0  0  0  0  0
    5.4542    5.1354   -0.7509 C   0  0  0  0  0  0  0  0  0  0  0  0
    6.3070    4.4135   -1.5893 C   0  0  0  0  0  0  0  0  0  0  0  0
    6.9618    3.2424   -1.1721 C   0  0  0  0  0  0  0  0  0  0  0  0
    7.7859    2.5112   -2.0770 N   0  0  0  0  0  0  0  0  0  0  0  0
    8.0123    2.8463   -3.4168 C   0  0  0  0  0  0  0  0  0  0  0  0
    7.5637    3.8321   -4.0027 O   0  0  0  0  0  0  0  0  0  0  0  0
    8.8897    1.9486   -4.2209 C   0  0  0  0  0  0  0  0  0  0  0  0
    9.7713    1.2069   -3.5189 N   0  0  0  0  0  0  0  0  0  0  0  0
   10.7147    0.4923   -4.1990 N   0  0  0  0  0  0  0  0  0  0  0  0
   10.7642    0.5048   -5.5437 C   0  0  0  0  0  0  0  0  0  0  0  0
   11.7663   -0.2169   -6.1921 C   0  0  0  0  0  0  0  0  0  0  0  0
   11.8628   -0.2555   -7.5837 C   0  0  0  0  0  0  0  0  0  0  0  0
   10.9389    0.4228   -8.3556 C   0  0  0  0  0  0  0  0  0  0  0  0
    9.9271    1.1559   -7.7328 C   0  0  0  0  0  0  0  0  0  0  0  0
    9.8356    1.2273   -6.3179 C   0  0  0  0  0  0  0  0  0  0  0  0
    8.8815    2.0135   -5.6315 C   0  0  0  0  0  0  0  0  0  0  0  0
    7.8298    2.6585   -6.3449 N   0  0  0  0  0  0  0  0  0  0  0  0
    7.4861    0.4138    2.6595 C   0  0  0  0  0  0  0  0  0  0  0  0
    6.8777   -0.1674    3.7651 C   0  0  0  0  0  0  0  0  0  0  0  0
    5.5397   -0.1964    3.9734 N   0  0  0  0  0  0  0  0  0  0  0  0
    1.3410   -0.7276    5.7028 H   0  0  0  0  0  0  0  0  0  0  0  0
    0.9435   -0.8121    3.9598 H   0  0  0  0  0  0  0  0  0  0  0  0
    1.0382    0.7718    4.7694 H   0  0  0  0  0  0  0  0  0  0  0  0
    3.5688   -0.5111    5.0467 H   0  0  0  0  0  0  0  0  0  0  0  0
    4.6128    1.3175    1.0848 H   0  0  0  0  0  0  0  0  0  0  0  0
    5.8858    3.3837    2.0791 H   0  0  0  0  0  0  0  0  0  0  0  0
    4.2114    4.9535    2.4207 H   0  0  0  0  0  0  0  0  0  0  0  0
    3.3012    5.4282    0.9861 H   0  0  0  0  0  0  0  0  0  0  0  0
    4.6052    6.4819    1.6077 H   0  0  0  0  0  0  0  0  0  0  0  0
    4.9310    6.0027   -1.1495 H   0  0  0  0  0  0  0  0  0  0  0  0
    6.4016    4.8154   -2.5894 H   0  0  0  0  0  0  0  0  0  0  0  0
    8.2521    1.6838   -1.7142 H   0  0  0  0  0  0  0  0  0  0  0  0
   12.4926   -0.7543   -5.5911 H   0  0  0  0  0  0  0  0  0  0  0  0
   12.6644   -0.8206   -8.0557 H   0  0  0  0  0  0  0  0  0  0  0  0
   11.0002    0.3976   -9.4420 H   0  0  0  0  0  0  0  0  0  0  0  0
    9.2181    1.6810   -8.3671 H   0  0  0  0  0  0  0  0  0  0  0  0
    8.0860    3.0134   -7.2590 H   0  0  0  0  0  0  0  0  0  0  0  0
    7.4126    3.4079   -5.7737 H   0  0  0  0  0  0  0  0  0  0  0  0
    8.5675    0.4368    2.5782 H   0  0  0  0  0  0  0  0  0  0  0  0
    7.4725   -0.6294    4.5516 H   0  0  0  0  0  0  0  0  0  0  0  0
  1  2  1  0  0  0  0
  1 33  1  0  0  0  0
  1 34  1  0  0  0  0
  1 35  1  0  0  0  0
  2  3  1  0  0  0  0
  2 36  1  0  0  0  0
  3  4  2  0  0  0  0
  3  5  1  0  0  0  0
  5  6  2  0  0  0  0
  5 32  1  0  0  0  0
  6  7  1  0  0  0  0
  6 37  1  0  0  0  0
  7  8  1  0  0  0  0
  7 30  2  0  0  0  0
  8  9  1  0  0  0  0
  9 10  2  0  0  0  0
  9 15  1  0  0  0  0
 10 11  1  0  0  0  0
 10 38  1  0  0  0  0
 11 12  1  0  0  0  0
 11 13  2  0  0  0  0
 12 39  1  0  0  0  0
 12 40  1  0  0  0  0
 12 41  1  0  0  0  0
 13 14  1  0  0  0  0
 13 42  1  0  0  0  0
 14 15  2  0  0  0  0
 14 43  1  0  0  0  0
 15 16  1  0  0  0  0
 16 17  1  0  0  0  0
 16 44  1  0  0  0  0
 17 18  2  0  0  0  0
 17 19  1  0  0  0  0
 19 20  2  0  0  0  0
 19 28  1  0  0  0  0
 20 21  1  0  0  0  0
 21 22  2  0  0  0  0
 22 23  1  0  0  0  0
 22 27  1  0  0  0  0
 23 24  2  0  0  0  0
 23 45  1  0  0  0  0
 24 25  1  0  0  0  0
 24 46  1  0  0  0  0
 25 26  2  0  0  0  0
 25 47  1  0  0  0  0
 26 27  1  0  0  0  0
 26 48  1  0  0  0  0
 27 28  2  0  0  0  0
 28 29  1  0  0  0  0
 29 49  1  0  0  0  0
 29 50  1  0  0  0  0
 30 31  1  0  0  0  0
 30 51  1  0  0  0  0
 31 32  2  0  0  0  0
 31 52  1  0  0  0  0
M  END
$$$$
