
 OpenBabel01122422393D

 46 49  0  0  0  0  0  0  0  0999 V2000
    1.5563   -2.6043   -5.0478 N   0  0  0  0  0  0  0  0  0  0  0  0
    0.8091   -1.8164   -4.6469 C   0  0  0  0  0  0  0  0  0  0  0  0
   -0.1244   -0.8443   -4.1483 C   0  0  0  0  0  0  0  0  0  0  0  0
    0.2603    0.4998   -4.0427 C   0  0  0  0  0  0  0  0  0  0  0  0
   -0.6366    1.4710   -3.5697 C   0  0  0  0  0  0  0  0  0  0  0  0
   -1.9286    1.0738   -3.1924 C   0  0  0  0  0  0  0  0  0  0  0  0
   -2.9778    1.8189   -2.7088 N   0  0  0  0  0  0  0  0  0  0  0  0
   -3.9468    0.9545   -2.4595 C   0  0  0  0  0  0  0  0  0  0  0  0
   -5.2970    1.2206   -1.8735 C   0  0  0  0  0  0  0  0  0  0  0  0
   -5.4085    2.6208   -1.5408 N   0  0  0  0  0  0  0  0  0  0  0  0
   -5.8082    3.0714   -0.2968 C   0  0  0  0  0  0  0  0  0  0  0  0
   -6.1032    2.3018    0.6095 O   0  0  0  0  0  0  0  0  0  0  0  0
   -5.8784    4.5567   -0.1310 C   0  0  0  0  0  0  0  0  0  0  0  0
   -5.0826    5.4003   -0.9207 C   0  0  0  0  0  0  0  0  0  0  0  0
   -5.2151    6.7826   -0.8212 C   0  0  0  0  0  0  0  0  0  0  0  0
   -6.1146    7.2888    0.0968 C   0  0  0  0  0  0  0  0  0  0  0  0
   -6.8741    6.5169    0.8997 N   0  0  0  0  0  0  0  0  0  0  0  0
   -6.7569    5.1682    0.7692 C   0  0  0  0  0  0  0  0  0  0  0  0
   -7.5660    4.3922    1.5629 O   0  0  0  0  0  0  0  0  0  0  0  0
   -8.6999    5.0798    2.1055 C   0  0  0  0  0  0  0  0  0  0  0  0
   -9.7251    4.0800    2.5933 C   0  0  0  0  0  0  0  0  0  0  0  0
   -9.4547    2.7063    2.6670 C   0  0  0  0  0  0  0  0  0  0  0  0
  -10.4419    1.8044    3.0718 C   0  0  0  0  0  0  0  0  0  0  0  0
  -11.7109    2.2632    3.4207 C   0  0  0  0  0  0  0  0  0  0  0  0
  -11.9873    3.6283    3.3792 C   0  0  0  0  0  0  0  0  0  0  0  0
  -10.9973    4.5217    2.9721 C   0  0  0  0  0  0  0  0  0  0  0  0
  -11.2896    5.8305    2.9343 F   0  0  0  0  0  0  0  0  0  0  0  0
   -3.5672   -0.3161   -2.8255 N   0  0  0  0  0  0  0  0  0  0  0  0
   -2.2788   -0.2682   -3.2945 C   0  0  0  0  0  0  0  0  0  0  0  0
   -1.4132   -1.2585   -3.7716 C   0  0  0  0  0  0  0  0  0  0  0  0
    1.2657    0.8076   -4.3275 H   0  0  0  0  0  0  0  0  0  0  0  0
   -0.3408    2.5114   -3.4830 H   0  0  0  0  0  0  0  0  0  0  0  0
   -5.4742    0.5864   -1.0007 H   0  0  0  0  0  0  0  0  0  0  0  0
   -6.0663    1.0113   -2.6247 H   0  0  0  0  0  0  0  0  0  0  0  0
   -5.1239    3.2576   -2.2695 H   0  0  0  0  0  0  0  0  0  0  0  0
   -4.3451    5.0031   -1.6118 H   0  0  0  0  0  0  0  0  0  0  0  0
   -4.6266    7.4456   -1.4458 H   0  0  0  0  0  0  0  0  0  0  0  0
   -6.2538    8.3597    0.2147 H   0  0  0  0  0  0  0  0  0  0  0  0
   -9.1790    5.6890    1.3277 H   0  0  0  0  0  0  0  0  0  0  0  0
   -8.3862    5.7124    2.9454 H   0  0  0  0  0  0  0  0  0  0  0  0
   -8.4717    2.3216    2.3950 H   0  0  0  0  0  0  0  0  0  0  0  0
  -10.2148    0.7417    3.1053 H   0  0  0  0  0  0  0  0  0  0  0  0
  -12.4790    1.5574    3.7248 H   0  0  0  0  0  0  0  0  0  0  0  0
  -12.9694    4.0010    3.6532 H   0  0  0  0  0  0  0  0  0  0  0  0
   -4.1355   -1.1470   -2.7396 H   0  0  0  0  0  0  0  0  0  0  0  0
   -1.7189   -2.2995   -3.8424 H   0  0  0  0  0  0  0  0  0  0  0  0
  1  2  3  0  0  0  0
  2  3  1  0  0  0  0
  3  4  2  0  0  0  0
  3 30  1  0  0  0  0
  4  5  1  0  0  0  0
  4 31  1  0  0  0  0
  5  6  2  0  0  0  0
  5 32  1  0  0  0  0
  6  7  1  0  0  0  0
  6 29  1  0  0  0  0
  7  8  2  0  0  0  0
  8  9  1  0  0  0  0
  8 28  1  0  0  0  0
  9 10  1  0  0  0  0
  9 33  1  0  0  0  0
  9 34  1  0  0  0  0
 10 11  1  0  0  0  0
 10 35  1  0  0  0  0
 11 12  2  0  0  0  0
 11 13  1  0  0  0  0
 13 14  2  0  0  0  0
 13 18  1  0  0  0  0
 14 15  1  0  0  0  0
 14 36  1  0  0  0  0
 15 16  2  0  0  0  0
 15 37  1  0  0  0  0
 16 17  1  0  0  0  0
 16 38  1  0  0  0  0
 17 18  2  0  0  0  0
 18 19  1  0  0  0  0
 19 20  1  0  0  0  0
 20 21  1  0  0  0  0
 20 39  1  0  0  0  0
 20 40  1  0  0  0  0
 21 22  2  0  0  0  0
 21 26  1  0  0  0  0
 22 23  1  0  0  0  0
 22 41  1  0  0  0  0
 23 24  2  0  0  0  0
 23 42  1  0  0  0  0
 24 25  1  0  0  0  0
 24 43  1  0  0  0  0
 25 26  2  0  0  0  0
 25 44  1  0  0  0  0
 26 27  1  0  0  0  0
 28 29  1  0  0  0  0
 28 45  1  0  0  0  0
 29 30  2  0  0  0  0
 30 46  1  0  0  0  0
M  END
$$$$
