
 OpenBabel01122422353D

 40 43  0  0  0  0  0  0  0  0999 V2000
    1.0432    0.6119   -0.2435 O   0  0  0  0  0  0  0  0  0  0  0  0
    2.1764    0.1565   -0.0948 C   0  0  0  0  0  0  0  0  0  0  0  0
    2.7265   -0.8746   -0.8298 N   0  0  0  0  0  0  0  0  0  0  0  0
    2.0740   -1.5875   -1.8546 C   0  0  0  0  0  0  0  0  0  0  0  0
    0.9107   -1.1228   -2.4664 C   0  0  0  0  0  0  0  0  0  0  0  0
    0.2326   -1.9069   -3.3953 C   0  0  0  0  0  0  0  0  0  0  0  0
    0.7098   -3.1741   -3.7379 C   0  0  0  0  0  0  0  0  0  0  0  0
   -0.0889   -4.0235   -4.6136 C   0  0  0  0  0  0  0  0  0  0  0  0
    0.4471   -4.9499   -5.4229 N   0  0  0  0  0  0  0  0  0  0  0  0
   -0.6143   -5.5470   -6.0806 O   0  0  0  0  0  0  0  0  0  0  0  0
   -1.7813   -4.9949   -5.6602 C   0  0  0  0  0  0  0  0  0  0  0  0
   -3.0304   -5.5260   -6.2265 C   0  0  0  0  0  0  0  0  0  0  0  0
   -2.8392   -6.5310   -7.1141 F   0  0  0  0  0  0  0  0  0  0  0  0
   -3.8464   -6.0099   -5.2515 F   0  0  0  0  0  0  0  0  0  0  0  0
   -3.7354   -4.5581   -6.8676 F   0  0  0  0  0  0  0  0  0  0  0  0
   -1.5039   -4.0231   -4.7332 C   0  0  0  0  0  0  0  0  0  0  0  0
    1.9182   -3.6148   -3.1837 C   0  0  0  0  0  0  0  0  0  0  0  0
    2.6014   -2.8208   -2.2512 C   0  0  0  0  0  0  0  0  0  0  0  0
    3.0333    0.6855    1.0085 C   0  0  0  0  0  0  0  0  0  0  0  0
    2.4857    1.6405    1.7852 C   0  0  0  0  0  0  0  0  0  0  0  0
    3.1996    2.1544    2.9462 C   0  0  0  0  0  0  0  0  0  0  0  0
    2.6347    3.0889    3.8098 C   0  0  0  0  0  0  0  0  0  0  0  0
    3.3535    3.4914    4.9307 C   0  0  0  0  0  0  0  0  0  0  0  0
    4.6150    2.9506    5.1345 C   0  0  0  0  0  0  0  0  0  0  0  0
    5.1972    2.0540    4.3065 N   0  0  0  0  0  0  0  0  0  0  0  0
    4.4744    1.6731    3.2379 C   0  0  0  0  0  0  0  0  0  0  0  0
    5.0406    0.7218    2.3965 N   0  0  0  0  0  0  0  0  0  0  0  0
    4.4060    0.1876    1.3112 C   0  0  0  0  0  0  0  0  0  0  0  0
    4.9367   -0.6800    0.6201 O   0  0  0  0  0  0  0  0  0  0  0  0
    3.6378   -1.2270   -0.5321 H   0  0  0  0  0  0  0  0  0  0  0  0
    0.4965   -0.1453   -2.2435 H   0  0  0  0  0  0  0  0  0  0  0  0
   -0.6784   -1.5057   -3.8320 H   0  0  0  0  0  0  0  0  0  0  0  0
   -2.2226   -3.4104   -4.2046 H   0  0  0  0  0  0  0  0  0  0  0  0
    2.3183   -4.5934   -3.4434 H   0  0  0  0  0  0  0  0  0  0  0  0
    3.5179   -3.2039   -1.8079 H   0  0  0  0  0  0  0  0  0  0  0  0
    1.4875    2.0270    1.5983 H   0  0  0  0  0  0  0  0  0  0  0  0
    1.6410    3.4919    3.6301 H   0  0  0  0  0  0  0  0  0  0  0  0
    2.9360    4.2034    5.6345 H   0  0  0  0  0  0  0  0  0  0  0  0
    5.2066    3.2293    6.0022 H   0  0  0  0  0  0  0  0  0  0  0  0
    5.9637    0.3917    2.6366 H   0  0  0  0  0  0  0  0  0  0  0  0
  1  2  2  0  0  0  0
  2  3  1  0  0  0  0
  2 19  1  0  0  0  0
  3  4  1  0  0  0  0
  3 30  1  0  0  0  0
  4  5  2  0  0  0  0
  4 18  1  0  0  0  0
  5  6  1  0  0  0  0
  5 31  1  0  0  0  0
  6  7  2  0  0  0  0
  6 32  1  0  0  0  0
  7  8  1  0  0  0  0
  7 17  1  0  0  0  0
  8  9  2  0  0  0  0
  8 16  1  0  0  0  0
  9 10  1  0  0  0  0
 10 11  1  0  0  0  0
 11 12  1  0  0  0  0
 11 16  2  0  0  0  0
 12 13  1  0  0  0  0
 12 14  1  0  0  0  0
 12 15  1  0  0  0  0
 16 33  1  0  0  0  0
 17 18  2  0  0  0  0
 17 34  1  0  0  0  0
 18 35  1  0  0  0  0
 19 20  2  0  0  0  0
 19 28  1  0  0  0  0
 20 21  1  0  0  0  0
 20 36  1  0  0  0  0
 21 22  2  0  0  0  0
 21 26  1  0  0  0  0
 22 23  1  0  0  0  0
 22 37  1  0  0  0  0
 23 24  2  0  0  0  0
 23 38  1  0  0  0  0
 24 25  1  0  0  0  0
 24 39  1  0  0  0  0
 25 26  2  0  0  0  0
 26 27  1  0  0  0  0
 27 28  1  0  0  0  0
 27 40  1  0  0  0  0
 28 29  2  0  0  0  0
M  END
$$$$
