
 OpenBabel01122422393D

 44 47  0  0  0  0  0  0  0  0999 V2000
    5.1745    4.6847    0.3068 C   0  0  0  0  0  0  0  0  0  0  0  0
    4.6362    3.3702    0.1803 O   0  0  0  0  0  0  0  0  0  0  0  0
    5.2927    2.5828   -0.7147 C   0  0  0  0  0  0  0  0  0  0  0  0
    6.2652    2.9238   -1.3710 O   0  0  0  0  0  0  0  0  0  0  0  0
    4.6591    1.2246   -0.7478 C   0  0  0  0  0  0  0  0  0  0  0  0
    3.3159    1.2149   -0.4886 N   0  0  0  0  0  0  0  0  0  0  0  0
    2.6867    0.0313   -0.5426 C   0  0  0  0  0  0  0  0  0  0  0  0
    3.3239   -1.1542   -0.8492 C   0  0  0  0  0  0  0  0  0  0  0  0
    4.6985   -1.1417   -1.1134 C   0  0  0  0  0  0  0  0  0  0  0  0
    5.3557   -2.3403   -1.4436 C   0  0  0  0  0  0  0  0  0  0  0  0
    6.7247   -2.3912   -1.7320 C   0  0  0  0  0  0  0  0  0  0  0  0
    7.3834   -3.5771   -2.1401 N   0  0  0  0  0  0  0  0  0  0  0  0
    6.7514   -4.7255   -2.5895 C   0  0  0  0  0  0  0  0  0  0  0  0
    5.5366   -4.8595   -2.7159 O   0  0  0  0  0  0  0  0  0  0  0  0
    7.6370   -5.8407   -2.9672 C   0  0  0  0  0  0  0  0  0  0  0  0
    8.9858   -5.8293   -2.9194 N   0  0  0  0  0  0  0  0  0  0  0  0
    9.3550   -7.0798   -3.3504 N   0  0  0  0  0  0  0  0  0  0  0  0
   10.7189   -7.4868   -3.4326 C   0  0  0  0  0  0  0  0  0  0  0  0
   11.7379   -6.6081   -3.0535 C   0  0  0  0  0  0  0  0  0  0  0  0
   13.0653   -7.0259   -3.1248 C   0  0  0  0  0  0  0  0  0  0  0  0
   14.0403   -6.1852   -2.7548 F   0  0  0  0  0  0  0  0  0  0  0  0
   13.4026   -8.3020   -3.5655 C   0  0  0  0  0  0  0  0  0  0  0  0
   12.3959   -9.1806   -3.9512 C   0  0  0  0  0  0  0  0  0  0  0  0
   11.0592   -8.7769   -3.8853 C   0  0  0  0  0  0  0  0  0  0  0  0
    8.2578   -7.8488   -3.6635 C   0  0  0  0  0  0  0  0  0  0  0  0
    7.1498   -7.0854   -3.4317 C   0  0  0  0  0  0  0  0  0  0  0  0
    7.4610   -1.2159   -1.6179 C   0  0  0  0  0  0  0  0  0  0  0  0
    6.8211   -0.0072   -1.2952 C   0  0  0  0  0  0  0  0  0  0  0  0
    5.4206    0.0661   -1.0562 C   0  0  0  0  0  0  0  0  0  0  0  0
    4.5372    5.2483    0.9936 H   0  0  0  0  0  0  0  0  0  0  0  0
    5.1800    5.1978   -0.6600 H   0  0  0  0  0  0  0  0  0  0  0  0
    6.1838    4.6398    0.7276 H   0  0  0  0  0  0  0  0  0  0  0  0
    1.6202    0.0565   -0.3340 H   0  0  0  0  0  0  0  0  0  0  0  0
    2.7493   -2.0754   -0.8850 H   0  0  0  0  0  0  0  0  0  0  0  0
    4.7582   -3.2472   -1.4585 H   0  0  0  0  0  0  0  0  0  0  0  0
    8.3959   -3.5782   -2.2197 H   0  0  0  0  0  0  0  0  0  0  0  0
   11.5256   -5.6019   -2.7009 H   0  0  0  0  0  0  0  0  0  0  0  0
   14.4453   -8.6007   -3.6075 H   0  0  0  0  0  0  0  0  0  0  0  0
   12.6467  -10.1798   -4.2999 H   0  0  0  0  0  0  0  0  0  0  0  0
   10.3114   -9.5003   -4.1972 H   0  0  0  0  0  0  0  0  0  0  0  0
    8.3327   -8.8648   -4.0159 H   0  0  0  0  0  0  0  0  0  0  0  0
    6.1143   -7.3695   -3.5657 H   0  0  0  0  0  0  0  0  0  0  0  0
    8.5310   -1.2030   -1.8094 H   0  0  0  0  0  0  0  0  0  0  0  0
    7.4371    0.8889   -1.2430 H   0  0  0  0  0  0  0  0  0  0  0  0
  1  2  1  0  0  0  0
  1 30  1  0  0  0  0
  1 31  1  0  0  0  0
  1 32  1  0  0  0  0
  2  3  1  0  0  0  0
  3  4  2  0  0  0  0
  3  5  1  0  0  0  0
  5  6  2  0  0  0  0
  5 29  1  0  0  0  0
  6  7  1  0  0  0  0
  7  8  2  0  0  0  0
  7 33  1  0  0  0  0
  8  9  1  0  0  0  0
  8 34  1  0  0  0  0
  9 10  2  0  0  0  0
  9 29  1  0  0  0  0
 10 11  1  0  0  0  0
 10 35  1  0  0  0  0
 11 12  1  0  0  0  0
 11 27  2  0  0  0  0
 12 13  1  0  0  0  0
 12 36  1  0  0  0  0
 13 14  2  0  0  0  0
 13 15  1  0  0  0  0
 15 16  2  0  0  0  0
 15 26  1  0  0  0  0
 16 17  1  0  0  0  0
 17 18  1  0  0  0  0
 17 25  1  0  0  0  0
 18 19  2  0  0  0  0
 18 24  1  0  0  0  0
 19 20  1  0  0  0  0
 19 37  1  0  0  0  0
 20 21  1  0  0  0  0
 20 22  2  0  0  0  0
 22 23  1  0  0  0  0
 22 38  1  0  0  0  0
 23 24  2  0  0  0  0
 23 39  1  0  0  0  0
 24 40  1  0  0  0  0
 25 26  2  0  0  0  0
 25 41  1  0  0  0  0
 26 42  1  0  0  0  0
 27 28  1  0  0  0  0
 27 43  1  0  0  0  0
 28 29  2  0  0  0  0
 28 44  1  0  0  0  0
M  END
$$$$
