
 OpenBabel01122422393D

 43 46  0  0  0  0  0  0  0  0999 V2000
    1.1842   -0.2704   -0.8116 O   0  0  0  0  0  0  0  0  0  0  0  0
    2.2940   -0.1941   -0.2861 C   0  0  0  0  0  0  0  0  0  0  0  0
    2.8293   -1.0654    0.6372 N   0  0  0  0  0  0  0  0  0  0  0  0
    2.1877   -2.1819    1.2172 C   0  0  0  0  0  0  0  0  0  0  0  0
    1.0298   -2.7529    0.6956 C   0  0  0  0  0  0  0  0  0  0  0  0
    0.3817   -3.7992    1.3625 C   0  0  0  0  0  0  0  0  0  0  0  0
    0.8801   -4.2517    2.5982 C   0  0  0  0  0  0  0  0  0  0  0  0
    0.4194   -5.2041    3.5436 C   0  0  0  0  0  0  0  0  0  0  0  0
    1.2740   -5.1701    4.6200 C   0  0  0  0  0  0  0  0  0  0  0  0
    2.2594   -4.2451    4.3593 N   0  0  0  0  0  0  0  0  0  0  0  0
    3.1524   -3.7173    5.3873 C   0  0  0  0  0  0  0  0  0  0  0  0
    4.4124   -4.5098    5.5958 C   0  0  0  0  0  0  0  0  0  0  0  0
    4.4405   -5.6261    6.4467 C   0  0  0  0  0  0  0  0  0  0  0  0
    5.6536   -6.2457    6.7650 C   0  0  0  0  0  0  0  0  0  0  0  0
    6.8484   -5.7686    6.2268 C   0  0  0  0  0  0  0  0  0  0  0  0
    6.8271   -4.6907    5.3446 C   0  0  0  0  0  0  0  0  0  0  0  0
    5.6162   -4.0768    5.0331 C   0  0  0  0  0  0  0  0  0  0  0  0
    5.6267   -3.0144    4.2153 F   0  0  0  0  0  0  0  0  0  0  0  0
    2.0521   -3.6861    3.1076 C   0  0  0  0  0  0  0  0  0  0  0  0
    2.7503   -2.6872    2.4028 C   0  0  0  0  0  0  0  0  0  0  0  0
    3.1532    0.9830   -0.6575 C   0  0  0  0  0  0  0  0  0  0  0  0
    4.3008    1.2945   -0.0548 C   0  0  0  0  0  0  0  0  0  0  0  0
    4.8317    0.5800    0.9573 F   0  0  0  0  0  0  0  0  0  0  0  0
    5.0529    2.4891   -0.4915 C   0  0  0  0  0  0  0  0  0  0  0  0
    6.1106    2.8156    0.0333 O   0  0  0  0  0  0  0  0  0  0  0  0
    4.4889    3.2038   -1.5137 N   0  0  0  0  0  0  0  0  0  0  0  0
    3.3022    2.9081   -2.1255 C   0  0  0  0  0  0  0  0  0  0  0  0
    2.8433    3.6020   -3.0240 O   0  0  0  0  0  0  0  0  0  0  0  0
    2.6704    1.7900   -1.6699 N   0  0  0  0  0  0  0  0  0  0  0  0
    3.7215   -0.8243    1.0546 H   0  0  0  0  0  0  0  0  0  0  0  0
    0.5962   -2.4090   -0.2383 H   0  0  0  0  0  0  0  0  0  0  0  0
   -0.5281   -4.2228    0.9469 H   0  0  0  0  0  0  0  0  0  0  0  0
   -0.4766   -5.8056    3.4660 H   0  0  0  0  0  0  0  0  0  0  0  0
    1.2317   -5.6927    5.5664 H   0  0  0  0  0  0  0  0  0  0  0  0
    2.5802   -3.6870    6.3237 H   0  0  0  0  0  0  0  0  0  0  0  0
    3.3769   -2.6723    5.1479 H   0  0  0  0  0  0  0  0  0  0  0  0
    3.5244   -6.0008    6.8986 H   0  0  0  0  0  0  0  0  0  0  0  0
    5.6690   -7.0898    7.4515 H   0  0  0  0  0  0  0  0  0  0  0  0
    7.7935   -6.2322    6.4992 H   0  0  0  0  0  0  0  0  0  0  0  0
    7.7486   -4.3087    4.9164 H   0  0  0  0  0  0  0  0  0  0  0  0
    3.6655   -2.2691    2.8089 H   0  0  0  0  0  0  0  0  0  0  0  0
    4.9727    4.0283   -1.8282 H   0  0  0  0  0  0  0  0  0  0  0  0
    1.7725    1.5410   -2.0920 H   0  0  0  0  0  0  0  0  0  0  0  0
  1  2  2  0  0  0  0
  2  3  1  0  0  0  0
  2 21  1  0  0  0  0
  3  4  1  0  0  0  0
  3 30  1  0  0  0  0
  4  5  2  0  0  0  0
  4 20  1  0  0  0  0
  5  6  1  0  0  0  0
  5 31  1  0  0  0  0
  6  7  2  0  0  0  0
  6 32  1  0  0  0  0
  7  8  1  0  0  0  0
  7 19  1  0  0  0  0
  8  9  2  0  0  0  0
  8 33  1  0  0  0  0
  9 10  1  0  0  0  0
  9 34  1  0  0  0  0
 10 11  1  0  0  0  0
 10 19  1  0  0  0  0
 11 12  1  0  0  0  0
 11 35  1  0  0  0  0
 11 36  1  0  0  0  0
 12 13  2  0  0  0  0
 12 17  1  0  0  0  0
 13 14  1  0  0  0  0
 13 37  1  0  0  0  0
 14 15  2  0  0  0  0
 14 38  1  0  0  0  0
 15 16  1  0  0  0  0
 15 39  1  0  0  0  0
 16 17  2  0  0  0  0
 16 40  1  0  0  0  0
 17 18  1  0  0  0  0
 19 20  2  0  0  0  0
 20 41  1  0  0  0  0
 21 22  2  0  0  0  0
 21 29  1  0  0  0  0
 22 23  1  0  0  0  0
 22 24  1  0  0  0  0
 24 25  2  0  0  0  0
 24 26  1  0  0  0  0
 26 27  1  0  0  0  0
 26 42  1  0  0  0  0
 27 28  2  0  0  0  0
 27 29  1  0  0  0  0
 29 43  1  0  0  0  0
M  END
$$$$
