
 OpenBabel01122422393D

 52 55  0  0  1  0  0  0  0  0999 V2000
    5.5355    2.1440    2.2735 C   0  0  0  0  0  0  0  0  0  0  0  0
    5.1421    0.6926    2.3526 C   0  0  0  0  0  0  0  0  0  0  0  0
    5.1860   -0.0616    1.2491 C   0  0  0  0  0  0  0  0  0  0  0  0
    4.9563   -1.5185    1.3814 C   0  0  0  0  0  0  0  0  0  0  0  0
    5.1037   -2.2842    0.2460 N   0  0  0  0  0  0  0  0  0  0  0  0
    4.5759   -3.6345    0.0773 C   0  0  3  0  0  0  0  0  0  0  0  0
    3.8646   -3.8014   -1.3062 C   0  0  0  0  0  0  0  0  0  0  0  0
    2.7127   -2.9116   -1.5435 N   0  0  0  0  0  0  0  0  0  0  0  0
    1.4496   -3.4631   -1.7066 C   0  0  0  0  0  0  0  0  0  0  0  0
    0.3873   -2.6953   -1.9846 C   0  0  0  0  0  0  0  0  0  0  0  0
    0.5294   -1.2639   -2.0518 C   0  0  0  0  0  0  0  0  0  0  0  0
    1.7360   -0.6982   -1.9347 C   0  0  0  0  0  0  0  0  0  0  0  0
    2.9411   -1.5502   -1.7561 C   0  0  0  0  0  0  0  0  0  0  0  0
    4.0538   -1.0266   -1.7967 O   0  0  0  0  0  0  0  0  0  0  0  0
    5.7301   -4.6334    0.1699 C   0  0  0  0  0  0  0  0  0  0  0  0
    5.6823   -5.6967    1.0806 C   0  0  0  0  0  0  0  0  0  0  0  0
    6.7283   -6.6235    1.1589 C   0  0  0  0  0  0  0  0  0  0  0  0
    7.8382   -6.4968    0.3258 C   0  0  0  0  0  0  0  0  0  0  0  0
    7.9027   -5.4475   -0.5862 C   0  0  0  0  0  0  0  0  0  0  0  0
    6.8582   -4.5224   -0.6652 C   0  0  0  0  0  0  0  0  0  0  0  0
    4.6474   -2.0587    2.5152 N   0  0  0  0  0  0  0  0  0  0  0  0
    4.5496   -1.2891    3.6518 C   0  0  0  0  0  0  0  0  0  0  0  0
    4.2004   -1.8253    4.7045 O   0  0  0  0  0  0  0  0  0  0  0  0
    4.8348    0.1022    3.5766 N   0  0  0  0  0  0  0  0  0  0  0  0
    4.7863    0.8330    4.8069 C   0  0  0  0  0  0  0  0  0  0  0  0
    5.6393    0.4690    5.8583 C   0  0  0  0  0  0  0  0  0  0  0  0
    5.5631    1.1193    7.0893 C   0  0  0  0  0  0  0  0  0  0  0  0
    4.6236    2.1293    7.2867 C   0  0  0  0  0  0  0  0  0  0  0  0
    3.7776    2.5060    6.2432 C   0  0  0  0  0  0  0  0  0  0  0  0
    3.8662    1.8700    5.0010 C   0  0  0  0  0  0  0  0  0  0  0  0
    6.0144    2.3767    1.3140 H   0  0  0  0  0  0  0  0  0  0  0  0
    6.2666    2.3997    3.0477 H   0  0  0  0  0  0  0  0  0  0  0  0
    4.6650    2.7994    2.3666 H   0  0  0  0  0  0  0  0  0  0  0  0
    5.4302    0.3318    0.2706 H   0  0  0  0  0  0  0  0  0  0  0  0
    5.1374   -1.7584   -0.6299 H   0  0  0  0  0  0  0  0  0  0  0  0
    3.8360   -3.8495    0.8587 H   0  0  0  0  0  0  0  0  0  0  0  0
    3.5389   -4.8450   -1.4135 H   0  0  0  0  0  0  0  0  0  0  0  0
    4.5737   -3.6107   -2.1210 H   0  0  0  0  0  0  0  0  0  0  0  0
    1.3540   -4.5421   -1.6351 H   0  0  0  0  0  0  0  0  0  0  0  0
   -0.5938   -3.1279   -2.1520 H   0  0  0  0  0  0  0  0  0  0  0  0
   -0.3609   -0.6593   -2.1872 H   0  0  0  0  0  0  0  0  0  0  0  0
    1.8918    0.3717   -1.9687 H   0  0  0  0  0  0  0  0  0  0  0  0
    4.8339   -5.8081    1.7539 H   0  0  0  0  0  0  0  0  0  0  0  0
    6.6815   -7.4354    1.8794 H   0  0  0  0  0  0  0  0  0  0  0  0
    8.6564   -7.2086    0.3962 H   0  0  0  0  0  0  0  0  0  0  0  0
    8.7701   -5.3426   -1.2327 H   0  0  0  0  0  0  0  0  0  0  0  0
    6.9375   -3.7043   -1.3772 H   0  0  0  0  0  0  0  0  0  0  0  0
    6.3662   -0.3275    5.7207 H   0  0  0  0  0  0  0  0  0  0  0  0
    6.2255    0.8223    7.8990 H   0  0  0  0  0  0  0  0  0  0  0  0
    4.5427    2.6116    8.2575 H   0  0  0  0  0  0  0  0  0  0  0  0
    3.0303    3.2788    6.4078 H   0  0  0  0  0  0  0  0  0  0  0  0
    3.1712    2.1472    4.2132 H   0  0  0  0  0  0  0  0  0  0  0  0
  1  2  1  0  0  0  0
  1 31  1  0  0  0  0
  1 32  1  0  0  0  0
  1 33  1  0  0  0  0
  2  3  2  0  0  0  0
  2 24  1  0  0  0  0
  3  4  1  0  0  0  0
  3 34  1  0  0  0  0
  4  5  1  0  0  0  0
  4 21  2  0  0  0  0
  5  6  1  0  0  0  0
  5 35  1  0  0  0  0
  6  7  1  0  0  0  0
  6 15  1  0  0  0  0
  6 36  1  0  0  0  0
  7  8  1  0  0  0  0
  7 37  1  0  0  0  0
  7 38  1  0  0  0  0
  8  9  1  0  0  0  0
  8 13  1  0  0  0  0
  9 10  2  0  0  0  0
  9 39  1  0  0  0  0
 10 11  1  0  0  0  0
 10 40  1  0  0  0  0
 11 12  2  0  0  0  0
 11 41  1  0  0  0  0
 12 13  1  0  0  0  0
 12 42  1  0  0  0  0
 13 14  2  0  0  0  0
 15 16  2  0  0  0  0
 15 20  1  0  0  0  0
 16 17  1  0  0  0  0
 16 43  1  0  0  0  0
 17 18  2  0  0  0  0
 17 44  1  0  0  0  0
 18 19  1  0  0  0  0
 18 45  1  0  0  0  0
 19 20  2  0  0  0  0
 19 46  1  0  0  0  0
 20 47  1  0  0  0  0
 21 22  1  0  0  0  0
 22 23  2  0  0  0  0
 22 24  1  0  0  0  0
 24 25  1  0  0  0  0
 25 26  2  0  0  0  0
 25 30  1  0  0  0  0
 26 27  1  0  0  0  0
 26 48  1  0  0  0  0
 27 28  2  0  0  0  0
 27 49  1  0  0  0  0
 28 29  1  0  0  0  0
 28 50  1  0  0  0  0
 29 30  2  0  0  0  0
 29 51  1  0  0  0  0
 30 52  1  0  0  0  0
M  END
$$$$
