
 OpenBabel01122422393D

 42 45  0  0  0  0  0  0  0  0999 V2000
    0.9002   -0.1937   -0.1139 O   0  0  0  0  0  0  0  0  0  0  0  0
    2.1123   -0.0035   -0.0867 C   0  0  0  0  0  0  0  0  0  0  0  0
    2.8108    0.6515    0.9107 N   0  0  0  0  0  0  0  0  0  0  0  0
    2.2690    1.1908    2.0946 C   0  0  0  0  0  0  0  0  0  0  0  0
    0.9956    0.8678    2.5661 C   0  0  0  0  0  0  0  0  0  0  0  0
    0.4666    1.4936    3.7081 C   0  0  0  0  0  0  0  0  0  0  0  0
   -0.8519    1.1452    4.1134 N   0  0  0  0  0  0  0  0  0  0  0  0
   -1.2890   -0.1218    3.8609 N   0  0  0  0  0  0  0  0  0  0  0  0
   -2.4520   -0.2253    4.4953 C   0  0  0  0  0  0  0  0  0  0  0  0
   -2.8373    0.9829    5.0784 C   0  0  0  0  0  0  0  0  0  0  0  0
   -1.8283    1.8759    4.7590 C   0  0  0  0  0  0  0  0  0  0  0  0
   -1.8206    3.3341    4.9418 C   0  0  0  0  0  0  0  0  0  0  0  0
   -0.8746    4.0008    4.2428 F   0  0  0  0  0  0  0  0  0  0  0  0
   -3.0100    3.8717    4.5593 F   0  0  0  0  0  0  0  0  0  0  0  0
   -1.6553    3.6623    6.2480 F   0  0  0  0  0  0  0  0  0  0  0  0
    1.2513    2.4010    4.4224 C   0  0  0  0  0  0  0  0  0  0  0  0
    2.5404    2.7001    3.9740 C   0  0  0  0  0  0  0  0  0  0  0  0
    3.0470    2.0987    2.8174 C   0  0  0  0  0  0  0  0  0  0  0  0
    2.9315   -0.4217   -1.1941 C   0  0  0  0  0  0  0  0  0  0  0  0
    4.2395   -0.3264   -1.2967 N   0  0  0  0  0  0  0  0  0  0  0  0
    4.5886   -0.8235   -2.5370 N   0  0  0  0  0  0  0  0  0  0  0  0
    3.4910   -1.1983   -3.1725 C   0  0  0  0  0  0  0  0  0  0  0  0
    3.3796   -1.7461   -4.5221 C   0  0  0  0  0  0  0  0  0  0  0  0
    4.5377   -1.9228   -5.2952 C   0  0  0  0  0  0  0  0  0  0  0  0
    4.4654   -2.4381   -6.5895 C   0  0  0  0  0  0  0  0  0  0  0  0
    3.2322   -2.7844   -7.1369 C   0  0  0  0  0  0  0  0  0  0  0  0
    2.0697   -2.6150   -6.3884 C   0  0  0  0  0  0  0  0  0  0  0  0
    2.1435   -2.1013   -5.0903 C   0  0  0  0  0  0  0  0  0  0  0  0
    2.4310   -0.9723   -2.3374 N   0  0  0  0  0  0  0  0  0  0  0  0
    3.7880    0.8382    0.7039 H   0  0  0  0  0  0  0  0  0  0  0  0
    0.3830    0.1362    2.0458 H   0  0  0  0  0  0  0  0  0  0  0  0
   -2.9787   -1.1716    4.4770 H   0  0  0  0  0  0  0  0  0  0  0  0
   -3.7588    1.2060    5.5993 H   0  0  0  0  0  0  0  0  0  0  0  0
    0.9072    2.8605    5.3448 H   0  0  0  0  0  0  0  0  0  0  0  0
    3.1534    3.4095    4.5256 H   0  0  0  0  0  0  0  0  0  0  0  0
    4.0450    2.3691    2.4810 H   0  0  0  0  0  0  0  0  0  0  0  0
    5.5098   -1.6578   -4.8837 H   0  0  0  0  0  0  0  0  0  0  0  0
    5.3733   -2.5689   -7.1721 H   0  0  0  0  0  0  0  0  0  0  0  0
    3.1760   -3.1849   -8.1467 H   0  0  0  0  0  0  0  0  0  0  0  0
    1.1054   -2.8827   -6.8127 H   0  0  0  0  0  0  0  0  0  0  0  0
    1.2114   -1.9836   -4.5441 H   0  0  0  0  0  0  0  0  0  0  0  0
    1.4515   -1.1363   -2.5137 H   0  0  0  0  0  0  0  0  0  0  0  0
  1  2  2  0  0  0  0
  2  3  1  0  0  0  0
  2 19  1  0  0  0  0
  3  4  1  0  0  0  0
  3 30  1  0  0  0  0
  4  5  2  0  0  0  0
  4 18  1  0  0  0  0
  5  6  1  0  0  0  0
  5 31  1  0  0  0  0
  6  7  1  0  0  0  0
  6 16  2  0  0  0  0
  7  8  1  0  0  0  0
  7 11  1  0  0  0  0
  8  9  2  0  0  0  0
  9 10  1  0  0  0  0
  9 32  1  0  0  0  0
 10 11  2  0  0  0  0
 10 33  1  0  0  0  0
 11 12  1  0  0  0  0
 12 13  1  0  0  0  0
 12 14  1  0  0  0  0
 12 15  1  0  0  0  0
 16 17  1  0  0  0  0
 16 34  1  0  0  0  0
 17 18  2  0  0  0  0
 17 35  1  0  0  0  0
 18 36  1  0  0  0  0
 19 20  2  0  0  0  0
 19 29  1  0  0  0  0
 20 21  1  0  0  0  0
 21 22  2  0  0  0  0
 22 23  1  0  0  0  0
 22 29  1  0  0  0  0
 23 24  2  0  0  0  0
 23 28  1  0  0  0  0
 24 25  1  0  0  0  0
 24 37  1  0  0  0  0
 25 26  2  0  0  0  0
 25 38  1  0  0  0  0
 26 27  1  0  0  0  0
 26 39  1  0  0  0  0
 27 28  2  0  0  0  0
 27 40  1  0  0  0  0
 28 41  1  0  0  0  0
 29 42  1  0  0  0  0
M  END
$$$$
