
 OpenBabel01122422393D

 42 45  0  0  0  0  0  0  0  0999 V2000
    0.9996   -0.3433   -0.2467 O   0  0  0  0  0  0  0  0  0  0  0  0
    2.1678    0.0099   -0.1166 C   0  0  0  0  0  0  0  0  0  0  0  0
    2.6931    0.6663    0.9625 N   0  0  0  0  0  0  0  0  0  0  0  0
    2.0569    1.0350    2.1564 C   0  0  0  0  0  0  0  0  0  0  0  0
    0.7995    0.5748    2.5375 C   0  0  0  0  0  0  0  0  0  0  0  0
    0.2129    1.0283    3.7238 C   0  0  0  0  0  0  0  0  0  0  0  0
    0.8709    1.9516    4.5479 C   0  0  0  0  0  0  0  0  0  0  0  0
    0.2147    2.5004    5.7395 C   0  0  0  0  0  0  0  0  0  0  0  0
   -0.6662    1.8600    6.5224 C   0  0  0  0  0  0  0  0  0  0  0  0
   -1.1160    2.8784    7.4898 C   0  0  0  0  0  0  0  0  0  0  0  0
   -1.8442    2.6686    8.4420 O   0  0  0  0  0  0  0  0  0  0  0  0
   -0.5412    4.0782    7.1092 N   0  0  0  0  0  0  0  0  0  0  0  0
    0.4134    3.8222    6.1227 N   0  0  0  0  0  0  0  0  0  0  0  0
    2.1496    2.3832    4.1749 C   0  0  0  0  0  0  0  0  0  0  0  0
    2.7424    1.9181    2.9970 C   0  0  0  0  0  0  0  0  0  0  0  0
    3.0389   -0.2775   -1.1350 N   0  0  0  0  0  0  0  0  0  0  0  0
    4.3991   -0.0452   -1.1962 C   0  0  0  0  0  0  0  0  0  0  0  0
    5.0618    0.6980   -0.2971 N   0  0  0  0  0  0  0  0  0  0  0  0
    6.3874    0.6558   -0.6548 O   0  0  0  0  0  0  0  0  0  0  0  0
    6.5247   -0.0936   -1.7688 C   0  0  0  0  0  0  0  0  0  0  0  0
    5.2933   -0.5449   -2.1918 C   0  0  0  0  0  0  0  0  0  0  0  0
    5.1327   -1.4250   -3.3407 C   0  0  0  0  0  0  0  0  0  0  0  0
    5.9724   -1.2880   -4.4606 C   0  0  0  0  0  0  0  0  0  0  0  0
    5.8996   -2.1978   -5.5193 C   0  0  0  0  0  0  0  0  0  0  0  0
    4.9787   -3.2369   -5.4708 C   0  0  0  0  0  0  0  0  0  0  0  0
    4.9347   -4.1249   -6.4714 F   0  0  0  0  0  0  0  0  0  0  0  0
    4.1128   -3.3725   -4.3980 C   0  0  0  0  0  0  0  0  0  0  0  0
    4.1937   -2.4667   -3.3447 C   0  0  0  0  0  0  0  0  0  0  0  0
    3.3520   -2.6340   -2.3149 F   0  0  0  0  0  0  0  0  0  0  0  0
    3.6462    0.9923    0.8376 H   0  0  0  0  0  0  0  0  0  0  0  0
    0.2489   -0.1398    1.9329 H   0  0  0  0  0  0  0  0  0  0  0  0
   -0.7807    0.6639    3.9744 H   0  0  0  0  0  0  0  0  0  0  0  0
   -1.0288    0.8510    6.4900 H   0  0  0  0  0  0  0  0  0  0  0  0
   -0.4221    4.8296    7.7776 H   0  0  0  0  0  0  0  0  0  0  0  0
    0.3718    4.4530    5.3179 H   0  0  0  0  0  0  0  0  0  0  0  0
    2.6987    3.0880    4.7958 H   0  0  0  0  0  0  0  0  0  0  0  0
    3.7335    2.2787    2.7314 H   0  0  0  0  0  0  0  0  0  0  0  0
    2.6230   -0.8330   -1.8700 H   0  0  0  0  0  0  0  0  0  0  0  0
    7.5404   -0.2221   -2.1132 H   0  0  0  0  0  0  0  0  0  0  0  0
    6.6991   -0.4805   -4.5230 H   0  0  0  0  0  0  0  0  0  0  0  0
    6.5635   -2.1084   -6.3744 H   0  0  0  0  0  0  0  0  0  0  0  0
    3.3933   -4.1831   -4.3707 H   0  0  0  0  0  0  0  0  0  0  0  0
  1  2  2  0  0  0  0
  2  3  1  0  0  0  0
  2 16  1  0  0  0  0
  3  4  1  0  0  0  0
  3 30  1  0  0  0  0
  4  5  2  0  0  0  0
  4 15  1  0  0  0  0
  5  6  1  0  0  0  0
  5 31  1  0  0  0  0
  6  7  2  0  0  0  0
  6 32  1  0  0  0  0
  7  8  1  0  0  0  0
  7 14  1  0  0  0  0
  8  9  2  0  0  0  0
  8 13  1  0  0  0  0
  9 10  1  0  0  0  0
  9 33  1  0  0  0  0
 10 11  2  0  0  0  0
 10 12  1  0  0  0  0
 12 13  1  0  0  0  0
 12 34  1  0  0  0  0
 13 35  1  0  0  0  0
 14 15  2  0  0  0  0
 14 36  1  0  0  0  0
 15 37  1  0  0  0  0
 16 17  1  0  0  0  0
 16 38  1  0  0  0  0
 17 18  2  0  0  0  0
 17 21  1  0  0  0  0
 18 19  1  0  0  0  0
 19 20  1  0  0  0  0
 20 21  2  0  0  0  0
 20 39  1  0  0  0  0
 21 22  1  0  0  0  0
 22 23  2  0  0  0  0
 22 28  1  0  0  0  0
 23 24  1  0  0  0  0
 23 40  1  0  0  0  0
 24 25  2  0  0  0  0
 24 41  1  0  0  0  0
 25 26  1  0  0  0  0
 25 27  1  0  0  0  0
 27 28  2  0  0  0  0
 27 42  1  0  0  0  0
 28 29  1  0  0  0  0
M  END
$$$$
