
 OpenBabel01122422393D

 55 58  0  0  1  0  0  0  0  0999 V2000
    0.8213    0.0261    0.0112 C   0  0  0  0  0  0  0  0  0  0  0  0
    2.3453   -0.1185    0.0027 C   0  0  3  0  0  0  0  0  0  0  0  0
    2.6559   -1.2031   -0.8842 O   0  0  0  0  0  0  0  0  0  0  0  0
    2.5728   -2.4465   -0.3242 C   0  0  0  0  0  0  0  0  0  0  0  0
    2.5498   -2.6646    0.8797 O   0  0  0  0  0  0  0  0  0  0  0  0
    2.4114   -3.5134   -1.3924 C   0  0  0  0  0  0  0  0  0  0  0  0
    3.6595   -4.0159   -1.8378 O   0  0  0  0  0  0  0  0  0  0  0  0
    3.6052   -4.9972   -2.7962 C   0  0  0  0  0  0  0  0  0  0  0  0
    2.4381   -5.5474   -3.3366 C   0  0  0  0  0  0  0  0  0  0  0  0
    2.5134   -6.5558   -4.3000 C   0  0  0  0  0  0  0  0  0  0  0  0
    3.7532   -7.0128   -4.7370 C   0  0  0  0  0  0  0  0  0  0  0  0
    4.9238   -6.4320   -4.2441 C   0  0  0  0  0  0  0  0  0  0  0  0
    6.1834   -6.8250   -4.6419 O   0  0  0  0  0  0  0  0  0  0  0  0
    6.3912   -7.0715   -5.9972 C   0  0  0  0  0  0  0  0  0  0  0  0
    7.4589   -7.8973   -6.3191 C   0  0  0  0  0  0  0  0  0  0  0  0
    7.6861   -8.1859   -7.6624 C   0  0  0  0  0  0  0  0  0  0  0  0
    6.8471   -7.6392   -8.6308 C   0  0  0  0  0  0  0  0  0  0  0  0
    5.8229   -6.8089   -8.2143 C   0  0  0  0  0  0  0  0  0  0  0  0
    5.5849   -6.5014   -6.9223 N   0  0  0  0  0  0  0  0  0  0  0  0
    4.8477   -5.4529   -3.2490 C   0  0  0  0  0  0  0  0  0  0  0  0
    2.9901    1.1929   -0.4685 C   0  0  0  0  0  0  0  0  0  0  0  0
    2.3163    2.1757   -0.7838 O   0  0  0  0  0  0  0  0  0  0  0  0
    4.4809    1.3197   -0.5053 C   0  0  0  0  0  0  0  0  0  0  0  0
    5.3422    0.2940   -0.0613 C   0  0  0  0  0  0  0  0  0  0  0  0
    6.7333    0.4470   -0.1233 C   0  0  0  0  0  0  0  0  0  0  0  0
    7.2359    1.6285   -0.6330 C   0  0  0  0  0  0  0  0  0  0  0  0
    6.3981    2.6511   -1.0715 C   0  0  0  0  0  0  0  0  0  0  0  0
    5.0222    2.5204   -1.0030 C   0  0  0  0  0  0  0  0  0  0  0  0
    7.2206    3.7908   -1.5927 C   0  0  0  0  0  0  0  0  0  0  0  0
    8.6533    3.2809   -1.3967 C   0  0  0  0  0  0  0  0  0  0  0  0
    9.6700    3.8842   -1.7052 O   0  0  0  0  0  0  0  0  0  0  0  0
    8.5665    2.0131   -0.8119 N   0  0  0  0  0  0  0  0  0  0  0  0
    9.6961    1.1987   -0.4604 C   0  0  0  0  0  0  0  0  0  0  0  0
    0.3413   -0.8883    0.3749 H   0  0  0  0  0  0  0  0  0  0  0  0
    0.4455    0.1922   -1.0059 H   0  0  0  0  0  0  0  0  0  0  0  0
    0.4980    0.8617    0.6391 H   0  0  0  0  0  0  0  0  0  0  0  0
    2.6957   -0.3037    1.0254 H   0  0  0  0  0  0  0  0  0  0  0  0
    1.8447   -3.0723   -2.2227 H   0  0  0  0  0  0  0  0  0  0  0  0
    1.8045   -4.3108   -0.9440 H   0  0  0  0  0  0  0  0  0  0  0  0
    1.4487   -5.2215   -3.0349 H   0  0  0  0  0  0  0  0  0  0  0  0
    1.6055   -6.9812   -4.7197 H   0  0  0  0  0  0  0  0  0  0  0  0
    3.7966   -7.7998   -5.4843 H   0  0  0  0  0  0  0  0  0  0  0  0
    8.0914   -8.3126   -5.5439 H   0  0  0  0  0  0  0  0  0  0  0  0
    8.5058   -8.8368   -7.9529 H   0  0  0  0  0  0  0  0  0  0  0  0
    6.9884   -7.8574   -9.6829 H   0  0  0  0  0  0  0  0  0  0  0  0
    5.1389   -6.3574   -8.9274 H   0  0  0  0  0  0  0  0  0  0  0  0
    5.7603   -5.0317   -2.8367 H   0  0  0  0  0  0  0  0  0  0  0  0
    4.9547   -0.6387    0.3387 H   0  0  0  0  0  0  0  0  0  0  0  0
    7.3866   -0.3496    0.2146 H   0  0  0  0  0  0  0  0  0  0  0  0
    4.3775    3.3301   -1.3365 H   0  0  0  0  0  0  0  0  0  0  0  0
    7.0723    4.6979   -1.0018 H   0  0  0  0  0  0  0  0  0  0  0  0
    7.0337    3.9587   -2.6560 H   0  0  0  0  0  0  0  0  0  0  0  0
   10.6299    1.7341   -0.6446 H   0  0  0  0  0  0  0  0  0  0  0  0
    9.6855    0.2843   -1.0639 H   0  0  0  0  0  0  0  0  0  0  0  0
    9.6394    0.9412    0.6018 H   0  0  0  0  0  0  0  0  0  0  0  0
  1  2  1  0  0  0  0
  1 34  1  0  0  0  0
  1 35  1  0  0  0  0
  1 36  1  0  0  0  0
  2  3  1  0  0  0  0
  2 21  1  0  0  0  0
  2 37  1  0  0  0  0
  3  4  1  0  0  0  0
  4  5  2  0  0  0  0
  4  6  1  0  0  0  0
  6  7  1  0  0  0  0
  6 38  1  0  0  0  0
  6 39  1  0  0  0  0
  7  8  1  0  0  0  0
  8  9  2  0  0  0  0
  8 20  1  0  0  0  0
  9 10  1  0  0  0  0
  9 40  1  0  0  0  0
 10 11  2  0  0  0  0
 10 41  1  0  0  0  0
 11 12  1  0  0  0  0
 11 42  1  0  0  0  0
 12 13  1  0  0  0  0
 12 20  2  0  0  0  0
 13 14  1  0  0  0  0
 14 15  2  0  0  0  0
 14 19  1  0  0  0  0
 15 16  1  0  0  0  0
 15 43  1  0  0  0  0
 16 17  2  0  0  0  0
 16 44  1  0  0  0  0
 17 18  1  0  0  0  0
 17 45  1  0  0  0  0
 18 19  2  0  0  0  0
 18 46  1  0  0  0  0
 20 47  1  0  0  0  0
 21 22  2  0  0  0  0
 21 23  1  0  0  0  0
 23 24  2  0  0  0  0
 23 28  1  0  0  0  0
 24 25  1  0  0  0  0
 24 48  1  0  0  0  0
 25 26  2  0  0  0  0
 25 49  1  0  0  0  0
 26 27  1  0  0  0  0
 26 32  1  0  0  0  0
 27 28  2  0  0  0  0
 27 29  1  0  0  0  0
 28 50  1  0  0  0  0
 29 30  1  0  0  0  0
 29 51  1  0  0  0  0
 29 52  1  0  0  0  0
 30 31  2  0  0  0  0
 30 32  1  0  0  0  0
 32 33  1  0  0  0  0
 33 53  1  0  0  0  0
 33 54  1  0  0  0  0
 33 55  1  0  0  0  0
M  END
$$$$
