
 OpenBabel01122422393D

 47 50  0  0  0  0  0  0  0  0999 V2000
    2.6127   -0.5700   -1.0441 O   0  0  0  0  0  0  0  0  0  0  0  0
    2.2400    0.1713   -0.1364 C   0  0  0  0  0  0  0  0  0  0  0  0
    0.7657    0.2638    0.2038 C   0  0  0  0  0  0  0  0  0  0  0  0
    0.0184    0.9092   -0.8996 C   0  0  0  0  0  0  0  0  0  0  0  0
    0.0946    0.9106   -2.2764 C   0  0  0  0  0  0  0  0  0  0  0  0
   -0.9104    1.6832   -2.7971 N   0  0  0  0  0  0  0  0  0  0  0  0
   -1.5509    2.1158   -1.7383 C   0  0  0  0  0  0  0  0  0  0  0  0
   -1.0517    1.6866   -0.5454 O   0  0  0  0  0  0  0  0  0  0  0  0
    3.0645    0.9378    0.6811 N   0  0  0  0  0  0  0  0  0  0  0  0
    4.4608    1.0910    0.5176 C   0  0  0  0  0  0  0  0  0  0  0  0
    5.1052    0.8012   -0.6863 C   0  0  0  0  0  0  0  0  0  0  0  0
    6.4930    0.9011   -0.8254 C   0  0  0  0  0  0  0  0  0  0  0  0
    7.1480    0.5951   -2.0433 N   0  0  0  0  0  0  0  0  0  0  0  0
    6.5221    0.5760   -3.2814 C   0  0  0  0  0  0  0  0  0  0  0  0
    5.3779    0.9497   -3.5198 O   0  0  0  0  0  0  0  0  0  0  0  0
    7.3271    0.1410   -4.4384 C   0  0  0  0  0  0  0  0  0  0  0  0
    7.0173    0.6919   -5.6762 C   0  0  0  0  0  0  0  0  0  0  0  0
    7.6378    0.3551   -6.8279 N   0  0  0  0  0  0  0  0  0  0  0  0
    8.5831   -0.6090   -6.7375 C   0  0  0  0  0  0  0  0  0  0  0  0
    8.9539   -1.2688   -5.5611 C   0  0  0  0  0  0  0  0  0  0  0  0
    9.9481   -2.3543   -5.5574 C   0  0  0  0  0  0  0  0  0  0  0  0
   10.1317   -3.2167   -6.6411 C   0  0  0  0  0  0  0  0  0  0  0  0
   11.0907   -4.2243   -6.5603 C   0  0  0  0  0  0  0  0  0  0  0  0
   11.8405   -4.3533   -5.4015 C   0  0  0  0  0  0  0  0  0  0  0  0
   11.5970   -3.4683   -4.3664 C   0  0  0  0  0  0  0  0  0  0  0  0
   10.6732   -2.4817   -4.4171 N   0  0  0  0  0  0  0  0  0  0  0  0
    8.3081   -0.8509   -4.3821 C   0  0  0  0  0  0  0  0  0  0  0  0
    7.2507    1.2896    0.2796 C   0  0  0  0  0  0  0  0  0  0  0  0
    6.6154    1.6390    1.4766 C   0  0  0  0  0  0  0  0  0  0  0  0
    5.2222    1.5548    1.5917 C   0  0  0  0  0  0  0  0  0  0  0  0
    0.6168    0.8061    1.1426 H   0  0  0  0  0  0  0  0  0  0  0  0
    0.4002   -0.7584    0.3590 H   0  0  0  0  0  0  0  0  0  0  0  0
    0.8107    0.3999   -2.9093 H   0  0  0  0  0  0  0  0  0  0  0  0
   -2.4213    2.7547   -1.6947 H   0  0  0  0  0  0  0  0  0  0  0  0
    2.6670    1.3185    1.5299 H   0  0  0  0  0  0  0  0  0  0  0  0
    4.5119    0.4869   -1.5352 H   0  0  0  0  0  0  0  0  0  0  0  0
    8.1566    0.5177   -2.0166 H   0  0  0  0  0  0  0  0  0  0  0  0
    6.2336    1.4398   -5.7793 H   0  0  0  0  0  0  0  0  0  0  0  0
    9.0502   -0.8410   -7.6914 H   0  0  0  0  0  0  0  0  0  0  0  0
    9.5299   -3.1340   -7.5406 H   0  0  0  0  0  0  0  0  0  0  0  0
   11.2418   -4.9029   -7.3948 H   0  0  0  0  0  0  0  0  0  0  0  0
   12.5922   -5.1284   -5.3048 H   0  0  0  0  0  0  0  0  0  0  0  0
   12.1552   -3.5309   -3.4369 H   0  0  0  0  0  0  0  0  0  0  0  0
    8.5398   -1.3473   -3.4422 H   0  0  0  0  0  0  0  0  0  0  0  0
    8.3336    1.3625    0.2159 H   0  0  0  0  0  0  0  0  0  0  0  0
    7.2084    1.9743    2.3237 H   0  0  0  0  0  0  0  0  0  0  0  0
    4.7567    1.8202    2.5363 H   0  0  0  0  0  0  0  0  0  0  0  0
  1  2  2  0  0  0  0
  2  3  1  0  0  0  0
  2  9  1  0  0  0  0
  3  4  1  0  0  0  0
  3 31  1  0  0  0  0
  3 32  1  0  0  0  0
  4  5  2  0  0  0  0
  4  8  1  0  0  0  0
  5  6  1  0  0  0  0
  5 33  1  0  0  0  0
  6  7  2  0  0  0  0
  7  8  1  0  0  0  0
  7 34  1  0  0  0  0
  9 10  1  0  0  0  0
  9 35  1  0  0  0  0
 10 11  2  0  0  0  0
 10 30  1  0  0  0  0
 11 12  1  0  0  0  0
 11 36  1  0  0  0  0
 12 13  1  0  0  0  0
 12 28  2  0  0  0  0
 13 14  1  0  0  0  0
 13 37  1  0  0  0  0
 14 15  2  0  0  0  0
 14 16  1  0  0  0  0
 16 17  2  0  0  0  0
 16 27  1  0  0  0  0
 17 18  1  0  0  0  0
 17 38  1  0  0  0  0
 18 19  2  0  0  0  0
 19 20  1  0  0  0  0
 19 39  1  0  0  0  0
 20 21  1  0  0  0  0
 20 27  2  0  0  0  0
 21 22  2  0  0  0  0
 21 26  1  0  0  0  0
 22 23  1  0  0  0  0
 22 40  1  0  0  0  0
 23 24  2  0  0  0  0
 23 41  1  0  0  0  0
 24 25  1  0  0  0  0
 24 42  1  0  0  0  0
 25 26  2  0  0  0  0
 25 43  1  0  0  0  0
 27 44  1  0  0  0  0
 28 29  1  0  0  0  0
 28 45  1  0  0  0  0
 29 30  2  0  0  0  0
 29 46  1  0  0  0  0
 30 47  1  0  0  0  0
M  END
$$$$
