
 OpenBabel01122422353D

 51 54  0  0  0  0  0  0  0  0999 V2000
    2.2525   -0.8705    2.3804 C   0  0  0  0  0  0  0  0  0  0  0  0
    3.4371   -0.6692    1.5147 C   0  0  0  0  0  0  0  0  0  0  0  0
    4.3026    0.3307    1.7390 N   0  0  0  0  0  0  0  0  0  0  0  0
    5.1244    0.3100    0.6587 N   0  0  0  0  0  0  0  0  0  0  0  0
    6.0459    1.3540    0.3902 C   0  0  0  0  0  0  0  0  0  0  0  0
    6.8367    1.2569   -0.7615 C   0  0  0  0  0  0  0  0  0  0  0  0
    7.7296    2.2644   -1.0696 C   0  0  0  0  0  0  0  0  0  0  0  0
    7.8288    3.3733   -0.2359 C   0  0  0  0  0  0  0  0  0  0  0  0
    7.0205    3.5306    0.8989 C   0  0  0  0  0  0  0  0  0  0  0  0
    7.0675    4.7016    1.7105 N   0  0  0  0  0  0  0  0  0  0  0  0
    7.8936    5.7864    1.4810 C   0  0  0  0  0  0  0  0  0  0  0  0
    8.6979    5.8912    0.5730 O   0  0  0  0  0  0  0  0  0  0  0  0
    7.7825    6.7945    2.4232 N   0  0  0  0  0  0  0  0  0  0  0  0
    8.6285    7.9554    2.1919 C   0  0  0  0  0  0  0  0  0  0  0  0
    9.0392    8.7028    3.4288 C   0  0  0  0  0  0  0  0  0  0  0  0
    9.7612    8.0642    4.4438 C   0  0  0  0  0  0  0  0  0  0  0  0
   10.2474    8.7893    5.5382 C   0  0  0  0  0  0  0  0  0  0  0  0
   10.0294   10.1696    5.6315 C   0  0  0  0  0  0  0  0  0  0  0  0
   10.5401   10.9323    6.7872 C   0  0  0  0  0  0  0  0  0  0  0  0
   11.7755   11.4599    6.7124 C   0  0  0  0  0  0  0  0  0  0  0  0
   12.3048   12.1819    7.7551 N   0  0  0  0  0  0  0  0  0  0  0  0
   11.6434   12.4302    8.9329 C   0  0  0  0  0  0  0  0  0  0  0  0
   12.1344   13.0767    9.8501 O   0  0  0  0  0  0  0  0  0  0  0  0
   10.2762   11.8597    9.0320 C   0  0  0  0  0  0  0  0  0  0  0  0
    9.7744   11.1512    8.0086 C   0  0  0  0  0  0  0  0  0  0  0  0
    9.3252   10.8143    4.6084 C   0  0  0  0  0  0  0  0  0  0  0  0
    8.8310   10.0868    3.5193 C   0  0  0  0  0  0  0  0  0  0  0  0
    6.1270    2.4932    1.2201 C   0  0  0  0  0  0  0  0  0  0  0  0
    4.8804   -0.7884   -0.1353 C   0  0  0  0  0  0  0  0  0  0  0  0
    3.7944   -1.4366    0.3901 C   0  0  0  0  0  0  0  0  0  0  0  0
    2.0968   -0.0292    3.0629 H   0  0  0  0  0  0  0  0  0  0  0  0
    2.3606   -1.7855    2.9684 H   0  0  0  0  0  0  0  0  0  0  0  0
    1.3518   -0.9667    1.7631 H   0  0  0  0  0  0  0  0  0  0  0  0
    6.7636    0.4240   -1.4494 H   0  0  0  0  0  0  0  0  0  0  0  0
    8.3352    2.2097   -1.9695 H   0  0  0  0  0  0  0  0  0  0  0  0
    8.5606    4.1143   -0.5319 H   0  0  0  0  0  0  0  0  0  0  0  0
    6.4108    4.7608    2.4739 H   0  0  0  0  0  0  0  0  0  0  0  0
    6.9220    6.9204    2.9282 H   0  0  0  0  0  0  0  0  0  0  0  0
    8.1021    8.6227    1.4949 H   0  0  0  0  0  0  0  0  0  0  0  0
    9.5485    7.6368    1.6839 H   0  0  0  0  0  0  0  0  0  0  0  0
    9.9733    6.9978    4.3717 H   0  0  0  0  0  0  0  0  0  0  0  0
   10.8110    8.2678    6.3091 H   0  0  0  0  0  0  0  0  0  0  0  0
   12.4141   11.3515    5.8398 H   0  0  0  0  0  0  0  0  0  0  0  0
   13.2370   12.5703    7.6839 H   0  0  0  0  0  0  0  0  0  0  0  0
    9.7352   12.0443    9.9505 H   0  0  0  0  0  0  0  0  0  0  0  0
    8.7773   10.7265    8.0752 H   0  0  0  0  0  0  0  0  0  0  0  0
    9.1683   11.8908    4.6393 H   0  0  0  0  0  0  0  0  0  0  0  0
    8.3049   10.6175    2.7275 H   0  0  0  0  0  0  0  0  0  0  0  0
    5.4919    2.5595    2.0996 H   0  0  0  0  0  0  0  0  0  0  0  0
    5.4612   -1.0026   -1.0189 H   0  0  0  0  0  0  0  0  0  0  0  0
    3.3126   -2.3199   -0.0007 H   0  0  0  0  0  0  0  0  0  0  0  0
  1  2  1  0  0  0  0
  1 31  1  0  0  0  0
  1 32  1  0  0  0  0
  1 33  1  0  0  0  0
  2  3  2  0  0  0  0
  2 30  1  0  0  0  0
  3  4  1  0  0  0  0
  4  5  1  0  0  0  0
  4 29  1  0  0  0  0
  5  6  2  0  0  0  0
  5 28  1  0  0  0  0
  6  7  1  0  0  0  0
  6 34  1  0  0  0  0
  7  8  2  0  0  0  0
  7 35  1  0  0  0  0
  8  9  1  0  0  0  0
  8 36  1  0  0  0  0
  9 10  1  0  0  0  0
  9 28  2  0  0  0  0
 10 11  1  0  0  0  0
 10 37  1  0  0  0  0
 11 12  2  0  0  0  0
 11 13  1  0  0  0  0
 13 14  1  0  0  0  0
 13 38  1  0  0  0  0
 14 15  1  0  0  0  0
 14 39  1  0  0  0  0
 14 40  1  0  0  0  0
 15 16  2  0  0  0  0
 15 27  1  0  0  0  0
 16 17  1  0  0  0  0
 16 41  1  0  0  0  0
 17 18  2  0  0  0  0
 17 42  1  0  0  0  0
 18 19  1  0  0  0  0
 18 26  1  0  0  0  0
 19 20  2  0  0  0  0
 19 25  1  0  0  0  0
 20 21  1  0  0  0  0
 20 43  1  0  0  0  0
 21 22  1  0  0  0  0
 21 44  1  0  0  0  0
 22 23  2  0  0  0  0
 22 24  1  0  0  0  0
 24 25  2  0  0  0  0
 24 45  1  0  0  0  0
 25 46  1  0  0  0  0
 26 27  2  0  0  0  0
 26 47  1  0  0  0  0
 27 48  1  0  0  0  0
 28 49  1  0  0  0  0
 29 30  2  0  0  0  0
 29 50  1  0  0  0  0
 30 51  1  0  0  0  0
M  END
$$$$
