
 OpenBabel01122422393D

 41 44  0  0  0  0  0  0  0  0999 V2000
    1.1221   -1.4715   -1.3522 C   0  0  0  0  0  0  0  0  0  0  0  0
    0.1226   -0.7124   -0.6501 N   0  0  0  0  0  0  0  0  0  0  0  0
   -0.7521    0.1917   -1.1666 C   0  0  0  0  0  0  0  0  0  0  0  0
   -1.5118    0.5738   -0.0822 C   0  0  0  0  0  0  0  0  0  0  0  0
   -2.6271    1.4997   -0.1147 C   0  0  0  0  0  0  0  0  0  0  0  0
   -2.6760    2.5133   -1.0809 C   0  0  0  0  0  0  0  0  0  0  0  0
   -3.7692    3.3710   -1.1507 C   0  0  0  0  0  0  0  0  0  0  0  0
   -4.8387    3.2048   -0.2744 C   0  0  0  0  0  0  0  0  0  0  0  0
   -4.8277    2.1868    0.6813 C   0  0  0  0  0  0  0  0  0  0  0  0
   -5.9251    1.9288    1.5319 N   0  0  0  0  0  0  0  0  0  0  0  0
   -7.2257    2.3911    1.3623 C   0  0  0  0  0  0  0  0  0  0  0  0
   -7.6049    3.1032    0.4356 O   0  0  0  0  0  0  0  0  0  0  0  0
   -8.1579    1.9152    2.3534 C   0  0  0  0  0  0  0  0  0  0  0  0
   -9.5159    2.0887    2.4826 C   0  0  0  0  0  0  0  0  0  0  0  0
   -9.8828    1.3280    3.6229 C   0  0  0  0  0  0  0  0  0  0  0  0
  -11.2146    1.1008    4.1729 C   0  0  0  0  0  0  0  0  0  0  0  0
  -12.3418    1.0707    3.3392 C   0  0  0  0  0  0  0  0  0  0  0  0
  -12.2250    1.2783    2.0209 F   0  0  0  0  0  0  0  0  0  0  0  0
  -13.6141    0.8049    3.8420 C   0  0  0  0  0  0  0  0  0  0  0  0
  -13.7675    0.5649    5.1999 C   0  0  0  0  0  0  0  0  0  0  0  0
  -14.9838    0.2948    5.6876 F   0  0  0  0  0  0  0  0  0  0  0  0
  -12.6784    0.6000    6.0569 C   0  0  0  0  0  0  0  0  0  0  0  0
  -11.4126    0.8704    5.5393 C   0  0  0  0  0  0  0  0  0  0  0  0
  -10.3889    0.9194    6.4043 F   0  0  0  0  0  0  0  0  0  0  0  0
   -8.7908    0.7597    4.1611 N   0  0  0  0  0  0  0  0  0  0  0  0
   -7.7222    1.1274    3.3729 O   0  0  0  0  0  0  0  0  0  0  0  0
   -3.6958    1.3645    0.7887 C   0  0  0  0  0  0  0  0  0  0  0  0
   -1.0793   -0.1016    1.0291 N   0  0  0  0  0  0  0  0  0  0  0  0
   -0.0639   -0.8808    0.6693 N   0  0  0  0  0  0  0  0  0  0  0  0
    1.1208   -1.1818   -2.4071 H   0  0  0  0  0  0  0  0  0  0  0  0
    0.8787   -2.5328   -1.2617 H   0  0  0  0  0  0  0  0  0  0  0  0
    2.0985   -1.2587   -0.9116 H   0  0  0  0  0  0  0  0  0  0  0  0
   -0.7767    0.4516   -2.2141 H   0  0  0  0  0  0  0  0  0  0  0  0
   -1.8624    2.6524   -1.7880 H   0  0  0  0  0  0  0  0  0  0  0  0
   -3.7991    4.1611   -1.8951 H   0  0  0  0  0  0  0  0  0  0  0  0
   -5.6680    3.8999   -0.3614 H   0  0  0  0  0  0  0  0  0  0  0  0
   -5.7857    1.2435    2.2671 H   0  0  0  0  0  0  0  0  0  0  0  0
  -10.1484    2.6608    1.8178 H   0  0  0  0  0  0  0  0  0  0  0  0
  -14.4704    0.7732    3.1778 H   0  0  0  0  0  0  0  0  0  0  0  0
  -12.8057    0.4157    7.1176 H   0  0  0  0  0  0  0  0  0  0  0  0
   -3.6587    0.5746    1.5361 H   0  0  0  0  0  0  0  0  0  0  0  0
  1  2  1  0  0  0  0
  1 30  1  0  0  0  0
  1 31  1  0  0  0  0
  1 32  1  0  0  0  0
  2  3  1  0  0  0  0
  2 29  1  0  0  0  0
  3  4  2  0  0  0  0
  3 33  1  0  0  0  0
  4  5  1  0  0  0  0
  4 28  1  0  0  0  0
  5  6  2  0  0  0  0
  5 27  1  0  0  0  0
  6  7  1  0  0  0  0
  6 34  1  0  0  0  0
  7  8  2  0  0  0  0
  7 35  1  0  0  0  0
  8  9  1  0  0  0  0
  8 36  1  0  0  0  0
  9 10  1  0  0  0  0
  9 27  2  0  0  0  0
 10 11  1  0  0  0  0
 10 37  1  0  0  0  0
 11 12  2  0  0  0  0
 11 13  1  0  0  0  0
 13 14  2  0  0  0  0
 13 26  1  0  0  0  0
 14 15  1  0  0  0  0
 14 38  1  0  0  0  0
 15 16  1  0  0  0  0
 15 25  2  0  0  0  0
 16 17  2  0  0  0  0
 16 23  1  0  0  0  0
 17 18  1  0  0  0  0
 17 19  1  0  0  0  0
 19 20  2  0  0  0  0
 19 39  1  0  0  0  0
 20 21  1  0  0  0  0
 20 22  1  0  0  0  0
 22 23  2  0  0  0  0
 22 40  1  0  0  0  0
 23 24  1  0  0  0  0
 25 26  1  0  0  0  0
 27 41  1  0  0  0  0
 28 29  2  0  0  0  0
M  END
$$$$
