
 OpenBabel01122422393D

 51 54  0  0  1  0  0  0  0  0999 V2000
    0.6725    0.8418    0.5847 C   0  0  0  0  0  0  0  0  0  0  0  0
    2.1239    0.9322    1.0153 C   0  0  0  0  0  0  0  0  0  0  0  0
    2.8670    1.5594   -0.0290 O   0  0  0  0  0  0  0  0  0  0  0  0
    4.2082    1.7204    0.1922 C   0  0  0  0  0  0  0  0  0  0  0  0
    4.8941    1.3445    1.3459 C   0  0  0  0  0  0  0  0  0  0  0  0
    6.2676    1.5770    1.4606 C   0  0  0  0  0  0  0  0  0  0  0  0
    6.9920    2.1859    0.4269 C   0  0  0  0  0  0  0  0  0  0  0  0
    8.4891    2.4953    0.5352 C   0  0  3  0  0  0  0  0  0  0  0  0
    9.0719    2.0676    1.7936 N   0  0  0  0  0  0  0  0  0  0  0  0
    9.1256    2.8653    2.9047 C   0  0  0  0  0  0  0  0  0  0  0  0
    8.7904    4.0470    2.9084 O   0  0  0  0  0  0  0  0  0  0  0  0
    9.6453    2.2005    4.1435 C   0  0  0  0  0  0  0  0  0  0  0  0
   10.1183    3.0136    5.1066 C   0  0  0  0  0  0  0  0  0  0  0  0
   10.6518    2.5280    6.2742 N   0  0  0  0  0  0  0  0  0  0  0  0
   10.7476    1.1930    6.5881 C   0  0  0  0  0  0  0  0  0  0  0  0
   11.2386    0.8005    7.6381 O   0  0  0  0  0  0  0  0  0  0  0  0
   10.2200    0.2520    5.5780 C   0  0  0  0  0  0  0  0  0  0  0  0
   10.2404   -1.1249    5.8000 C   0  0  0  0  0  0  0  0  0  0  0  0
    9.7274   -1.9722    4.8246 C   0  0  0  0  0  0  0  0  0  0  0  0
    9.2190   -1.4075    3.6661 C   0  0  0  0  0  0  0  0  0  0  0  0
    9.1904   -0.0750    3.4233 N   0  0  0  0  0  0  0  0  0  0  0  0
    9.6905    0.7479    4.3866 C   0  0  0  0  0  0  0  0  0  0  0  0
    9.2937    1.9147   -0.6271 C   0  0  0  0  0  0  0  0  0  0  0  0
   10.0285    2.7715   -1.4647 C   0  0  0  0  0  0  0  0  0  0  0  0
   10.6944    2.2754   -2.5877 C   0  0  0  0  0  0  0  0  0  0  0  0
   10.6497    0.9148   -2.8809 C   0  0  0  0  0  0  0  0  0  0  0  0
    9.9549    0.0458   -2.0419 C   0  0  0  0  0  0  0  0  0  0  0  0
    9.2838    0.5396   -0.9199 C   0  0  0  0  0  0  0  0  0  0  0  0
    6.2884    2.5543   -0.7357 C   0  0  0  0  0  0  0  0  0  0  0  0
    4.9137    2.3232   -0.8487 C   0  0  0  0  0  0  0  0  0  0  0  0
    0.0671    0.3716    1.3649 H   0  0  0  0  0  0  0  0  0  0  0  0
    0.5799    0.2566   -0.3358 H   0  0  0  0  0  0  0  0  0  0  0  0
    0.2689    1.8377    0.3750 H   0  0  0  0  0  0  0  0  0  0  0  0
    2.5049   -0.0803    1.1931 H   0  0  0  0  0  0  0  0  0  0  0  0
    2.1845    1.5253    1.9354 H   0  0  0  0  0  0  0  0  0  0  0  0
    4.3914    0.8761    2.1842 H   0  0  0  0  0  0  0  0  0  0  0  0
    6.7562    1.2766    2.3861 H   0  0  0  0  0  0  0  0  0  0  0  0
    8.5664    3.5906    0.5008 H   0  0  0  0  0  0  0  0  0  0  0  0
    9.2176    1.0707    1.9286 H   0  0  0  0  0  0  0  0  0  0  0  0
   10.1176    4.0967    5.0063 H   0  0  0  0  0  0  0  0  0  0  0  0
   11.0176    3.1721    6.9690 H   0  0  0  0  0  0  0  0  0  0  0  0
   10.6480   -1.5297    6.7238 H   0  0  0  0  0  0  0  0  0  0  0  0
    9.7241   -3.0482    4.9654 H   0  0  0  0  0  0  0  0  0  0  0  0
    8.8067   -2.0322    2.8775 H   0  0  0  0  0  0  0  0  0  0  0  0
   10.0685    3.8394   -1.2582 H   0  0  0  0  0  0  0  0  0  0  0  0
   11.2371    2.9543   -3.2407 H   0  0  0  0  0  0  0  0  0  0  0  0
   11.1532    0.5326   -3.7655 H   0  0  0  0  0  0  0  0  0  0  0  0
    9.9215   -1.0161   -2.2717 H   0  0  0  0  0  0  0  0  0  0  0  0
    8.7269   -0.1513   -0.2908 H   0  0  0  0  0  0  0  0  0  0  0  0
    6.8082    3.0254   -1.5681 H   0  0  0  0  0  0  0  0  0  0  0  0
    4.3910    2.6207   -1.7540 H   0  0  0  0  0  0  0  0  0  0  0  0
  1  2  1  0  0  0  0
  1 31  1  0  0  0  0
  1 32  1  0  0  0  0
  1 33  1  0  0  0  0
  2  3  1  0  0  0  0
  2 34  1  0  0  0  0
  2 35  1  0  0  0  0
  3  4  1  0  0  0  0
  4  5  2  0  0  0  0
  4 30  1  0  0  0  0
  5  6  1  0  0  0  0
  5 36  1  0  0  0  0
  6  7  2  0  0  0  0
  6 37  1  0  0  0  0
  7  8  1  0  0  0  0
  7 29  1  0  0  0  0
  8  9  1  0  0  0  0
  8 23  1  0  0  0  0
  8 38  1  0  0  0  0
  9 10  1  0  0  0  0
  9 39  1  0  0  0  0
 10 11  2  0  0  0  0
 10 12  1  0  0  0  0
 12 13  2  0  0  0  0
 12 22  1  0  0  0  0
 13 14  1  0  0  0  0
 13 40  1  0  0  0  0
 14 15  1  0  0  0  0
 14 41  1  0  0  0  0
 15 16  2  0  0  0  0
 15 17  1  0  0  0  0
 17 18  2  0  0  0  0
 17 22  1  0  0  0  0
 18 19  1  0  0  0  0
 18 42  1  0  0  0  0
 19 20  2  0  0  0  0
 19 43  1  0  0  0  0
 20 21  1  0  0  0  0
 20 44  1  0  0  0  0
 21 22  2  0  0  0  0
 23 24  2  0  0  0  0
 23 28  1  0  0  0  0
 24 25  1  0  0  0  0
 24 45  1  0  0  0  0
 25 26  2  0  0  0  0
 25 46  1  0  0  0  0
 26 27  1  0  0  0  0
 26 47  1  0  0  0  0
 27 28  2  0  0  0  0
 27 48  1  0  0  0  0
 28 49  1  0  0  0  0
 29 30  2  0  0  0  0
 29 50  1  0  0  0  0
 30 51  1  0  0  0  0
M  END
$$$$
