
 OpenBabel01122422393D

 44 47  0  0  0  0  0  0  0  0999 V2000
    1.0532    0.1279    0.0850 O   0  0  0  0  0  0  0  0  0  0  0  0
    2.2635    0.2313    0.2932 C   0  0  0  0  0  0  0  0  0  0  0  0
    3.1445    0.5598   -0.8598 C   0  0  0  0  0  0  0  0  0  0  0  0
    2.7187    0.0688   -2.1062 C   0  0  0  0  0  0  0  0  0  0  0  0
    3.4620    0.3585   -3.2342 C   0  0  0  0  0  0  0  0  0  0  0  0
    4.6101    1.0555   -3.1976 N   0  0  0  0  0  0  0  0  0  0  0  0
    4.9974    1.5290   -1.9886 C   0  0  0  0  0  0  0  0  0  0  0  0
    4.2806    1.3724   -0.8013 C   0  0  0  0  0  0  0  0  0  0  0  0
    4.6243    1.9774    0.3866 O   0  0  0  0  0  0  0  0  0  0  0  0
    5.4734    3.0613    0.3660 C   0  0  0  0  0  0  0  0  0  0  0  0
    5.2537    4.1709   -0.4594 C   0  0  0  0  0  0  0  0  0  0  0  0
    6.1917    5.2019   -0.4986 C   0  0  0  0  0  0  0  0  0  0  0  0
    7.3053    5.1459    0.3320 C   0  0  0  0  0  0  0  0  0  0  0  0
    8.2125    6.1301    0.2822 F   0  0  0  0  0  0  0  0  0  0  0  0
    7.4908    4.0851    1.2132 C   0  0  0  0  0  0  0  0  0  0  0  0
    6.5685    3.0369    1.2339 C   0  0  0  0  0  0  0  0  0  0  0  0
    2.7891   -0.0024    1.5424 N   0  0  0  0  0  0  0  0  0  0  0  0
    2.0522   -0.6001    2.6546 C   0  0  0  0  0  0  0  0  0  0  0  0
    3.4162   -0.7123    3.4042 C   0  0  0  0  0  0  0  0  0  0  0  0
    3.6839    0.4056    4.3058 O   0  0  0  0  0  0  0  0  0  0  0  0
    3.7574   -2.0872    4.1723 C   0  0  0  0  0  0  0  0  0  0  0  0
    2.7753   -2.9415    4.7209 C   0  0  0  0  0  0  0  0  0  0  0  0
    3.1090   -4.0842    5.4568 C   0  0  0  0  0  0  0  0  0  0  0  0
    4.4443   -4.4010    5.6682 C   0  0  0  0  0  0  0  0  0  0  0  0
    4.7624   -5.4786    6.3987 F   0  0  0  0  0  0  0  0  0  0  0  0
    5.4373   -3.5950    5.1391 C   0  0  0  0  0  0  0  0  0  0  0  0
    6.7291   -3.8868    5.3459 F   0  0  0  0  0  0  0  0  0  0  0  0
    5.1035   -2.4580    4.4066 C   0  0  0  0  0  0  0  0  0  0  0  0
    4.0666   -0.5393    1.9842 C   0  0  0  0  0  0  0  0  0  0  0  0
    1.8078   -0.5154   -2.1992 H   0  0  0  0  0  0  0  0  0  0  0  0
    3.1462    0.0277   -4.2199 H   0  0  0  0  0  0  0  0  0  0  0  0
    5.9323    2.0815   -2.0293 H   0  0  0  0  0  0  0  0  0  0  0  0
    4.3760    4.2234   -1.0985 H   0  0  0  0  0  0  0  0  0  0  0  0
    6.0644    6.0413   -1.1747 H   0  0  0  0  0  0  0  0  0  0  0  0
    8.3571    4.0788    1.8676 H   0  0  0  0  0  0  0  0  0  0  0  0
    6.7135    2.2018    1.9145 H   0  0  0  0  0  0  0  0  0  0  0  0
    1.5607   -1.5400    2.3844 H   0  0  0  0  0  0  0  0  0  0  0  0
    1.3287    0.0856    3.1047 H   0  0  0  0  0  0  0  0  0  0  0  0
    3.0304    0.3046    5.0199 H   0  0  0  0  0  0  0  0  0  0  0  0
    1.7171   -2.7075    4.5867 H   0  0  0  0  0  0  0  0  0  0  0  0
    2.3374   -4.7198    5.8830 H   0  0  0  0  0  0  0  0  0  0  0  0
    5.9098   -1.8279    4.0367 H   0  0  0  0  0  0  0  0  0  0  0  0
    4.3495   -1.4606    1.4662 H   0  0  0  0  0  0  0  0  0  0  0  0
    4.8990    0.1652    1.9750 H   0  0  0  0  0  0  0  0  0  0  0  0
  1  2  2  0  0  0  0
  2  3  1  0  0  0  0
  2 17  1  0  0  0  0
  3  4  2  0  0  0  0
  3  8  1  0  0  0  0
  4  5  1  0  0  0  0
  4 30  1  0  0  0  0
  5  6  2  0  0  0  0
  5 31  1  0  0  0  0
  6  7  1  0  0  0  0
  7  8  2  0  0  0  0
  7 32  1  0  0  0  0
  8  9  1  0  0  0  0
  9 10  1  0  0  0  0
 10 11  2  0  0  0  0
 10 16  1  0  0  0  0
 11 12  1  0  0  0  0
 11 33  1  0  0  0  0
 12 13  2  0  0  0  0
 12 34  1  0  0  0  0
 13 14  1  0  0  0  0
 13 15  1  0  0  0  0
 15 16  2  0  0  0  0
 15 35  1  0  0  0  0
 16 36  1  0  0  0  0
 17 18  1  0  0  0  0
 17 29  1  0  0  0  0
 18 19  1  0  0  0  0
 18 37  1  0  0  0  0
 18 38  1  0  0  0  0
 19 20  1  0  0  0  0
 19 21  1  0  0  0  0
 19 29  1  0  0  0  0
 20 39  1  0  0  0  0
 21 22  2  0  0  0  0
 21 28  1  0  0  0  0
 22 23  1  0  0  0  0
 22 40  1  0  0  0  0
 23 24  2  0  0  0  0
 23 41  1  0  0  0  0
 24 25  1  0  0  0  0
 24 26  1  0  0  0  0
 26 27  1  0  0  0  0
 26 28  2  0  0  0  0
 28 42  1  0  0  0  0
 29 43  1  0  0  0  0
 29 44  1  0  0  0  0
M  END
$$$$
