
 OpenBabel01122422393D

 41 44  0  0  0  0  0  0  0  0999 V2000
    1.1708   -0.2100    0.8839 C   0  0  0  0  0  0  0  0  0  0  0  0
    2.5415    0.0354    0.3652 C   0  0  0  0  0  0  0  0  0  0  0  0
    3.1699    1.2370    0.0948 C   0  0  0  0  0  0  0  0  0  0  0  0
    2.6952    2.5980    0.2392 C   0  0  0  0  0  0  0  0  0  0  0  0
    1.5559    2.8058    0.6487 O   0  0  0  0  0  0  0  0  0  0  0  0
    3.5647    3.6127   -0.1398 N   0  0  0  0  0  0  0  0  0  0  0  0
    3.2553    4.9926   -0.0302 C   0  0  0  0  0  0  0  0  0  0  0  0
    2.2613    5.4519    0.8434 C   0  0  0  0  0  0  0  0  0  0  0  0
    1.8780    6.7869    0.8647 C   0  0  0  0  0  0  0  0  0  0  0  0
    2.5073    7.6815    0.0200 C   0  0  0  0  0  0  0  0  0  0  0  0
    2.0919    8.9565    0.0590 F   0  0  0  0  0  0  0  0  0  0  0  0
    3.5348    7.2707   -0.8443 C   0  0  0  0  0  0  0  0  0  0  0  0
    4.1120    8.2097   -1.7841 C   0  0  0  0  0  0  0  0  0  0  0  0
    3.4584    9.3020   -2.3002 C   0  0  0  0  0  0  0  0  0  0  0  0
    4.3401    9.8836   -3.1700 N   0  0  0  0  0  0  0  0  0  0  0  0
    4.1597   11.0347   -3.9706 C   0  0  0  0  0  0  0  0  0  0  0  0
    5.1481   11.3999   -4.8966 C   0  0  0  0  0  0  0  0  0  0  0  0
    4.9556   12.5233   -5.6983 C   0  0  0  0  0  0  0  0  0  0  0  0
    5.8939   12.8619   -6.5914 F   0  0  0  0  0  0  0  0  0  0  0  0
    3.8065   13.2998   -5.5958 C   0  0  0  0  0  0  0  0  0  0  0  0
    2.8258   12.9475   -4.6717 C   0  0  0  0  0  0  0  0  0  0  0  0
    3.0053   11.8238   -3.8685 C   0  0  0  0  0  0  0  0  0  0  0  0
    2.0287   11.5499   -2.9933 F   0  0  0  0  0  0  0  0  0  0  0  0
    5.4825    9.1458   -3.1974 N   0  0  0  0  0  0  0  0  0  0  0  0
    5.3466    8.1216   -2.3574 N   0  0  0  0  0  0  0  0  0  0  0  0
    3.9324    5.9201   -0.8375 C   0  0  0  0  0  0  0  0  0  0  0  0
    4.4288    0.9947   -0.3657 O   0  0  0  0  0  0  0  0  0  0  0  0
    4.6491   -0.3723   -0.4041 N   0  0  0  0  0  0  0  0  0  0  0  0
    3.5163   -0.9280    0.0394 C   0  0  0  0  0  0  0  0  0  0  0  0
    0.5957    0.7077    1.0274 H   0  0  0  0  0  0  0  0  0  0  0  0
    1.2151   -0.7184    1.8516 H   0  0  0  0  0  0  0  0  0  0  0  0
    0.6069   -0.8361    0.1866 H   0  0  0  0  0  0  0  0  0  0  0  0
    4.3926    3.3455   -0.6699 H   0  0  0  0  0  0  0  0  0  0  0  0
    1.7510    4.7898    1.5367 H   0  0  0  0  0  0  0  0  0  0  0  0
    1.0811    7.1239    1.5186 H   0  0  0  0  0  0  0  0  0  0  0  0
    2.4621    9.6738   -2.1308 H   0  0  0  0  0  0  0  0  0  0  0  0
    6.0619   10.8243   -5.0210 H   0  0  0  0  0  0  0  0  0  0  0  0
    3.6814   14.1704   -6.2310 H   0  0  0  0  0  0  0  0  0  0  0  0
    1.9213   13.5394   -4.5680 H   0  0  0  0  0  0  0  0  0  0  0  0
    4.7176    5.5917   -1.5155 H   0  0  0  0  0  0  0  0  0  0  0  0
    3.4468   -2.0048    0.1020 H   0  0  0  0  0  0  0  0  0  0  0  0
  1  2  1  0  0  0  0
  1 30  1  0  0  0  0
  1 31  1  0  0  0  0
  1 32  1  0  0  0  0
  2  3  2  0  0  0  0
  2 29  1  0  0  0  0
  3  4  1  0  0  0  0
  3 27  1  0  0  0  0
  4  5  2  0  0  0  0
  4  6  1  0  0  0  0
  6  7  1  0  0  0  0
  6 33  1  0  0  0  0
  7  8  2  0  0  0  0
  7 26  1  0  0  0  0
  8  9  1  0  0  0  0
  8 34  1  0  0  0  0
  9 10  2  0  0  0  0
  9 35  1  0  0  0  0
 10 11  1  0  0  0  0
 10 12  1  0  0  0  0
 12 13  1  0  0  0  0
 12 26  2  0  0  0  0
 13 14  2  0  0  0  0
 13 25  1  0  0  0  0
 14 15  1  0  0  0  0
 14 36  1  0  0  0  0
 15 16  1  0  0  0  0
 15 24  1  0  0  0  0
 16 17  2  0  0  0  0
 16 22  1  0  0  0  0
 17 18  1  0  0  0  0
 17 37  1  0  0  0  0
 18 19  1  0  0  0  0
 18 20  2  0  0  0  0
 20 21  1  0  0  0  0
 20 38  1  0  0  0  0
 21 22  2  0  0  0  0
 21 39  1  0  0  0  0
 22 23  1  0  0  0  0
 24 25  2  0  0  0  0
 26 40  1  0  0  0  0
 27 28  1  0  0  0  0
 28 29  2  0  0  0  0
 29 41  1  0  0  0  0
M  END
$$$$
