
 OpenBabel01122422393D

 45 48  0  0  0  0  0  0  0  0999 V2000
    0.9663    0.3969   -0.0324 O   0  0  0  0  0  0  0  0  0  0  0  0
    2.2006    0.3844    0.0212 C   0  0  0  0  0  0  0  0  0  0  0  0
    2.9469    0.3647    1.1843 N   0  0  0  0  0  0  0  0  0  0  0  0
    2.4090    0.3033    2.4826 C   0  0  0  0  0  0  0  0  0  0  0  0
    1.3381   -0.5668    2.7415 C   0  0  0  0  0  0  0  0  0  0  0  0
    0.7624   -0.6404    4.0091 C   0  0  0  0  0  0  0  0  0  0  0  0
    1.2835    0.1200    5.0461 C   0  0  0  0  0  0  0  0  0  0  0  0
    2.3647    0.9705    4.8078 C   0  0  0  0  0  0  0  0  0  0  0  0
    2.9202    1.1243    3.5139 C   0  0  0  0  0  0  0  0  0  0  0  0
    3.6753    2.3722    3.2274 C   0  0  0  0  0  0  0  0  0  0  0  0
    3.0145    3.5759    3.5386 C   0  0  0  0  0  0  0  0  0  0  0  0
    3.4890    4.8018    3.1030 C   0  0  0  0  0  0  0  0  0  0  0  0
    4.7022    4.8793    2.4377 C   0  0  0  0  0  0  0  0  0  0  0  0
    5.1464    6.1207    1.9833 C   0  0  0  0  0  0  0  0  0  0  0  0
    6.4977    6.3203    1.7589 C   0  0  0  0  0  0  0  0  0  0  0  0
    7.3545    5.2236    1.7422 C   0  0  0  0  0  0  0  0  0  0  0  0
    6.8418    3.9272    1.8922 C   0  0  0  0  0  0  0  0  0  0  0  0
    5.5079    3.7277    2.2996 C   0  0  0  0  0  0  0  0  0  0  0  0
    4.9403    2.4636    2.6177 C   0  0  0  0  0  0  0  0  0  0  0  0
    3.0077    0.4569   -1.1784 C   0  0  0  0  0  0  0  0  0  0  0  0
    2.5968    0.7978   -2.4436 C   0  0  0  0  0  0  0  0  0  0  0  0
    3.6990    0.6853   -3.2309 N   0  0  0  0  0  0  0  0  0  0  0  0
    3.7997    0.9108   -4.6653 C   0  0  0  0  0  0  0  0  0  0  0  0
    3.3810   -0.2055   -5.3439 F   0  0  0  0  0  0  0  0  0  0  0  0
    2.9279    1.9010   -5.0346 F   0  0  0  0  0  0  0  0  0  0  0  0
    5.2040    1.2747   -5.1460 C   0  0  0  0  0  0  0  0  0  0  0  0
    5.2702    1.5124   -6.5633 O   0  0  0  0  0  0  0  0  0  0  0  0
    4.7666    0.3010   -2.4853 N   0  0  0  0  0  0  0  0  0  0  0  0
    4.3596    0.1866   -1.2326 N   0  0  0  0  0  0  0  0  0  0  0  0
    3.9150    0.6518    1.0805 H   0  0  0  0  0  0  0  0  0  0  0  0
    0.9287   -1.1917    1.9507 H   0  0  0  0  0  0  0  0  0  0  0  0
   -0.0988   -1.2812    4.1756 H   0  0  0  0  0  0  0  0  0  0  0  0
    0.8150    0.0961    6.0271 H   0  0  0  0  0  0  0  0  0  0  0  0
    2.7060    1.6082    5.6224 H   0  0  0  0  0  0  0  0  0  0  0  0
    2.0831    3.5625    4.1018 H   0  0  0  0  0  0  0  0  0  0  0  0
    2.9327    5.7012    3.3562 H   0  0  0  0  0  0  0  0  0  0  0  0
    4.4443    6.9423    1.8466 H   0  0  0  0  0  0  0  0  0  0  0  0
    6.8737    7.3315    1.6180 H   0  0  0  0  0  0  0  0  0  0  0  0
    8.4185    5.3834    1.5927 H   0  0  0  0  0  0  0  0  0  0  0  0
    7.5137    3.0828    1.7640 H   0  0  0  0  0  0  0  0  0  0  0  0
    5.5093    1.5606    2.4045 H   0  0  0  0  0  0  0  0  0  0  0  0
    1.6207    1.1155   -2.8378 H   0  0  0  0  0  0  0  0  0  0  0  0
    5.9123    0.4695   -4.9261 H   0  0  0  0  0  0  0  0  0  0  0  0
    5.5495    2.1873   -4.6507 H   0  0  0  0  0  0  0  0  0  0  0  0
    4.8542    0.7521   -7.0089 H   0  0  0  0  0  0  0  0  0  0  0  0
  1  2  2  0  0  0  0
  2  3  1  0  0  0  0
  2 20  1  0  0  0  0
  3  4  1  0  0  0  0
  3 30  1  0  0  0  0
  4  5  2  0  0  0  0
  4  9  1  0  0  0  0
  5  6  1  0  0  0  0
  5 31  1  0  0  0  0
  6  7  2  0  0  0  0
  6 32  1  0  0  0  0
  7  8  1  0  0  0  0
  7 33  1  0  0  0  0
  8  9  2  0  0  0  0
  8 34  1  0  0  0  0
  9 10  1  0  0  0  0
 10 11  2  0  0  0  0
 10 19  1  0  0  0  0
 11 12  1  0  0  0  0
 11 35  1  0  0  0  0
 12 13  2  0  0  0  0
 12 36  1  0  0  0  0
 13 14  1  0  0  0  0
 13 18  1  0  0  0  0
 14 15  2  0  0  0  0
 14 37  1  0  0  0  0
 15 16  1  0  0  0  0
 15 38  1  0  0  0  0
 16 17  2  0  0  0  0
 16 39  1  0  0  0  0
 17 18  1  0  0  0  0
 17 40  1  0  0  0  0
 18 19  2  0  0  0  0
 19 41  1  0  0  0  0
 20 21  2  0  0  0  0
 20 29  1  0  0  0  0
 21 22  1  0  0  0  0
 21 42  1  0  0  0  0
 22 23  1  0  0  0  0
 22 28  1  0  0  0  0
 23 24  1  0  0  0  0
 23 25  1  0  0  0  0
 23 26  1  0  0  0  0
 26 27  1  0  0  0  0
 26 43  1  0  0  0  0
 26 44  1  0  0  0  0
 27 45  1  0  0  0  0
 28 29  2  0  0  0  0
M  END
$$$$
