
 OpenBabel01122422393D

 47 50  0  0  0  0  0  0  0  0999 V2000
   -2.4389   -2.0220    3.5633 N   0  0  0  0  0  0  0  0  0  0  0  0
   -1.8481   -1.9895    2.5643 C   0  0  0  0  0  0  0  0  0  0  0  0
   -1.1288   -1.9371    1.3255 C   0  0  0  0  0  0  0  0  0  0  0  0
    0.2213   -2.3163    1.2749 C   0  0  0  0  0  0  0  0  0  0  0  0
    0.9267   -2.2472    0.0641 C   0  0  0  0  0  0  0  0  0  0  0  0
    2.2997   -2.6357    0.0125 N   0  0  0  0  0  0  0  0  0  0  0  0
    3.1402   -2.5457   -1.0732 C   0  0  0  0  0  0  0  0  0  0  0  0
    4.3471   -3.0698   -0.6945 C   0  0  0  0  0  0  0  0  0  0  0  0
    4.1831   -3.4617    0.6545 C   0  0  0  0  0  0  0  0  0  0  0  0
    5.2302   -4.1058    1.4689 C   0  0  0  0  0  0  0  0  0  0  0  0
    6.3622   -4.2951    1.0320 O   0  0  0  0  0  0  0  0  0  0  0  0
    4.8524   -4.4817    2.7360 N   0  0  0  0  0  0  0  0  0  0  0  0
    5.7527   -5.1939    3.6293 C   0  0  0  0  0  0  0  0  0  0  0  0
    6.0726   -4.4003    4.8752 C   0  0  0  0  0  0  0  0  0  0  0  0
    6.6791   -3.1550    4.7622 C   0  0  0  0  0  0  0  0  0  0  0  0
    6.7785   -2.3548    5.8973 C   0  0  0  0  0  0  0  0  0  0  0  0
    7.2194   -1.0504    5.8835 O   0  0  0  0  0  0  0  0  0  0  0  0
    6.9470   -0.2512    4.7923 C   0  0  0  0  0  0  0  0  0  0  0  0
    5.8105   -0.3747    3.9778 C   0  0  0  0  0  0  0  0  0  0  0  0
    5.6630    0.4320    2.8477 C   0  0  0  0  0  0  0  0  0  0  0  0
    6.6140    1.4084    2.5780 C   0  0  0  0  0  0  0  0  0  0  0  0
    6.4707    2.1815    1.4933 F   0  0  0  0  0  0  0  0  0  0  0  0
    7.6985    1.5869    3.4296 C   0  0  0  0  0  0  0  0  0  0  0  0
    8.5935    2.5537    3.1845 F   0  0  0  0  0  0  0  0  0  0  0  0
    7.8727    0.7621    4.5367 C   0  0  0  0  0  0  0  0  0  0  0  0
    6.4396   -2.8830    7.1364 C   0  0  0  0  0  0  0  0  0  0  0  0
    5.9264   -4.1663    7.1736 C   0  0  0  0  0  0  0  0  0  0  0  0
    5.7030   -4.9185    6.0726 N   0  0  0  0  0  0  0  0  0  0  0  0
    2.9408   -3.1707    1.0973 N   0  0  0  0  0  0  0  0  0  0  0  0
    0.2623   -1.7989   -1.0911 C   0  0  0  0  0  0  0  0  0  0  0  0
   -1.0850   -1.4323   -1.0387 C   0  0  0  0  0  0  0  0  0  0  0  0
   -1.7797   -1.4999    0.1660 C   0  0  0  0  0  0  0  0  0  0  0  0
    0.7143   -2.6568    2.1845 H   0  0  0  0  0  0  0  0  0  0  0  0
    2.8315   -2.1296   -2.0195 H   0  0  0  0  0  0  0  0  0  0  0  0
    5.2362   -3.1740   -1.3021 H   0  0  0  0  0  0  0  0  0  0  0  0
    3.8987   -4.2860    3.0207 H   0  0  0  0  0  0  0  0  0  0  0  0
    6.6881   -5.4522    3.1213 H   0  0  0  0  0  0  0  0  0  0  0  0
    5.2526   -6.1291    3.9014 H   0  0  0  0  0  0  0  0  0  0  0  0
    7.0055   -2.8030    3.7890 H   0  0  0  0  0  0  0  0  0  0  0  0
    5.0404   -1.1117    4.1926 H   0  0  0  0  0  0  0  0  0  0  0  0
    4.8162    0.3012    2.1810 H   0  0  0  0  0  0  0  0  0  0  0  0
    8.7313    0.9078    5.1844 H   0  0  0  0  0  0  0  0  0  0  0  0
    6.5599   -2.3074    8.0469 H   0  0  0  0  0  0  0  0  0  0  0  0
    5.6545   -4.6334    8.1163 H   0  0  0  0  0  0  0  0  0  0  0  0
    0.7555   -1.7339   -2.0568 H   0  0  0  0  0  0  0  0  0  0  0  0
   -1.5919   -1.0946   -1.9409 H   0  0  0  0  0  0  0  0  0  0  0  0
   -2.8293   -1.2110    0.1944 H   0  0  0  0  0  0  0  0  0  0  0  0
  1  2  3  0  0  0  0
  2  3  1  0  0  0  0
  3  4  2  0  0  0  0
  3 32  1  0  0  0  0
  4  5  1  0  0  0  0
  4 33  1  0  0  0  0
  5  6  1  0  0  0  0
  5 30  2  0  0  0  0
  6  7  1  0  0  0  0
  6 29  1  0  0  0  0
  7  8  2  0  0  0  0
  7 34  1  0  0  0  0
  8  9  1  0  0  0  0
  8 35  1  0  0  0  0
  9 10  1  0  0  0  0
  9 29  2  0  0  0  0
 10 11  2  0  0  0  0
 10 12  1  0  0  0  0
 12 13  1  0  0  0  0
 12 36  1  0  0  0  0
 13 14  1  0  0  0  0
 13 37  1  0  0  0  0
 13 38  1  0  0  0  0
 14 15  2  0  0  0  0
 14 28  1  0  0  0  0
 15 16  1  0  0  0  0
 15 39  1  0  0  0  0
 16 17  1  0  0  0  0
 16 26  2  0  0  0  0
 17 18  1  0  0  0  0
 18 19  2  0  0  0  0
 18 25  1  0  0  0  0
 19 20  1  0  0  0  0
 19 40  1  0  0  0  0
 20 21  2  0  0  0  0
 20 41  1  0  0  0  0
 21 22  1  0  0  0  0
 21 23  1  0  0  0  0
 23 24  1  0  0  0  0
 23 25  2  0  0  0  0
 25 42  1  0  0  0  0
 26 27  1  0  0  0  0
 26 43  1  0  0  0  0
 27 28  2  0  0  0  0
 27 44  1  0  0  0  0
 30 31  1  0  0  0  0
 30 45  1  0  0  0  0
 31 32  2  0  0  0  0
 31 46  1  0  0  0  0
 32 47  1  0  0  0  0
M  END
$$$$
