
 OpenBabel01122422393D

 49 52  0  0  0  0  0  0  0  0999 V2000
    1.6631    1.2036    0.2746 O   0  0  0  0  0  0  0  0  0  0  0  0
    1.9189    0.0044    0.1908 C   0  0  0  0  0  0  0  0  0  0  0  0
    1.4309   -0.8055   -0.8136 N   0  0  0  0  0  0  0  0  0  0  0  0
    0.5330   -0.3638   -1.7689 C   0  0  0  0  0  0  0  0  0  0  0  0
   -0.5334    0.4852   -1.5909 C   0  0  0  0  0  0  0  0  0  0  0  0
   -1.1340    0.6081   -2.8122 N   0  0  0  0  0  0  0  0  0  0  0  0
   -0.4984   -0.0608   -3.7914 N   0  0  0  0  0  0  0  0  0  0  0  0
    0.5012   -0.6615   -3.1462 C   0  0  0  0  0  0  0  0  0  0  0  0
    1.4137   -1.3784   -3.8369 O   0  0  0  0  0  0  0  0  0  0  0  0
    1.5959   -0.8964   -5.1786 C   0  0  0  0  0  0  0  0  0  0  0  0
    0.5995   -1.4539   -6.1907 C   0  0  0  0  0  0  0  0  0  0  0  0
   -0.2714   -2.3420   -5.6671 F   0  0  0  0  0  0  0  0  0  0  0  0
   -0.1076   -0.4717   -6.7969 F   0  0  0  0  0  0  0  0  0  0  0  0
    1.2703   -2.1074   -7.1778 F   0  0  0  0  0  0  0  0  0  0  0  0
    2.8307   -0.6666    1.1822 C   0  0  0  0  0  0  0  0  0  0  0  0
    3.8510   -0.0191    1.7978 C   0  0  0  0  0  0  0  0  0  0  0  0
    4.2550    1.3431    1.3991 C   0  0  0  0  0  0  0  0  0  0  0  0
    3.7490    2.4666    2.0588 C   0  0  0  0  0  0  0  0  0  0  0  0
    4.2202    3.7391    1.7329 C   0  0  0  0  0  0  0  0  0  0  0  0
    5.2091    3.8968    0.7613 C   0  0  0  0  0  0  0  0  0  0  0  0
    5.6991    2.7852    0.0780 C   0  0  0  0  0  0  0  0  0  0  0  0
    5.2003    1.5143    0.3698 C   0  0  0  0  0  0  0  0  0  0  0  0
    4.5476   -0.7633    2.9283 C   0  0  0  0  0  0  0  0  0  0  0  0
    5.5821   -0.0882    3.7956 C   0  0  0  0  0  0  0  0  0  0  0  0
    5.6163   -0.4242    5.1595 C   0  0  0  0  0  0  0  0  0  0  0  0
    6.5376    0.1757    6.0246 C   0  0  0  0  0  0  0  0  0  0  0  0
    7.4248    1.1338    5.5439 C   0  0  0  0  0  0  0  0  0  0  0  0
    7.4294    1.4468    4.1907 C   0  0  0  0  0  0  0  0  0  0  0  0
    6.5437    0.8058    3.3212 C   0  0  0  0  0  0  0  0  0  0  0  0
    4.2531   -1.9859    3.2631 N   0  0  0  0  0  0  0  0  0  0  0  0
    3.2978   -2.6206    2.5589 N   0  0  0  0  0  0  0  0  0  0  0  0
    2.5848   -2.0821    1.5264 C   0  0  0  0  0  0  0  0  0  0  0  0
    1.7805   -2.7820    0.9127 O   0  0  0  0  0  0  0  0  0  0  0  0
    1.7760   -1.7557   -0.9181 H   0  0  0  0  0  0  0  0  0  0  0  0
   -0.9364    0.9710   -0.7143 H   0  0  0  0  0  0  0  0  0  0  0  0
   -1.9729    1.1276   -3.0479 H   0  0  0  0  0  0  0  0  0  0  0  0
    2.6031   -1.2130   -5.4736 H   0  0  0  0  0  0  0  0  0  0  0  0
    1.6276    0.2027   -5.2111 H   0  0  0  0  0  0  0  0  0  0  0  0
    2.9875    2.3601    2.8274 H   0  0  0  0  0  0  0  0  0  0  0  0
    3.8215    4.6096    2.2480 H   0  0  0  0  0  0  0  0  0  0  0  0
    5.5935    4.8876    0.5366 H   0  0  0  0  0  0  0  0  0  0  0  0
    6.4837    2.9084   -0.6647 H   0  0  0  0  0  0  0  0  0  0  0  0
    5.6135    0.6549   -0.1540 H   0  0  0  0  0  0  0  0  0  0  0  0
    4.9282   -1.1645    5.5620 H   0  0  0  0  0  0  0  0  0  0  0  0
    6.5585   -0.1039    7.0742 H   0  0  0  0  0  0  0  0  0  0  0  0
    8.1255    1.6216    6.2163 H   0  0  0  0  0  0  0  0  0  0  0  0
    8.1276    2.1824    3.7990 H   0  0  0  0  0  0  0  0  0  0  0  0
    6.6552    1.0216    2.2699 H   0  0  0  0  0  0  0  0  0  0  0  0
    3.1040   -3.5857    2.8174 H   0  0  0  0  0  0  0  0  0  0  0  0
  1  2  2  0  0  0  0
  2  3  1  0  0  0  0
  2 15  1  0  0  0  0
  3  4  1  0  0  0  0
  3 34  1  0  0  0  0
  4  5  2  0  0  0  0
  4  8  1  0  0  0  0
  5  6  1  0  0  0  0
  5 35  1  0  0  0  0
  6  7  1  0  0  0  0
  6 36  1  0  0  0  0
  7  8  2  0  0  0  0
  8  9  1  0  0  0  0
  9 10  1  0  0  0  0
 10 11  1  0  0  0  0
 10 37  1  0  0  0  0
 10 38  1  0  0  0  0
 11 12  1  0  0  0  0
 11 13  1  0  0  0  0
 11 14  1  0  0  0  0
 15 16  2  0  0  0  0
 15 32  1  0  0  0  0
 16 17  1  0  0  0  0
 16 23  1  0  0  0  0
 17 18  2  0  0  0  0
 17 22  1  0  0  0  0
 18 19  1  0  0  0  0
 18 39  1  0  0  0  0
 19 20  2  0  0  0  0
 19 40  1  0  0  0  0
 20 21  1  0  0  0  0
 20 41  1  0  0  0  0
 21 22  2  0  0  0  0
 21 42  1  0  0  0  0
 22 43  1  0  0  0  0
 23 24  1  0  0  0  0
 23 30  2  0  0  0  0
 24 25  2  0  0  0  0
 24 29  1  0  0  0  0
 25 26  1  0  0  0  0
 25 44  1  0  0  0  0
 26 27  2  0  0  0  0
 26 45  1  0  0  0  0
 27 28  1  0  0  0  0
 27 46  1  0  0  0  0
 28 29  2  0  0  0  0
 28 47  1  0  0  0  0
 29 48  1  0  0  0  0
 30 31  1  0  0  0  0
 31 32  1  0  0  0  0
 31 49  1  0  0  0  0
 32 33  2  0  0  0  0
M  END
$$$$
