
 OpenBabel01122422353D

 51 54  0  0  0  0  0  0  0  0999 V2000
    1.0012    0.2719   -0.8544 C   0  0  0  0  0  0  0  0  0  0  0  0
    2.0353   -0.3250   -0.0829 O   0  0  0  0  0  0  0  0  0  0  0  0
    2.7568   -1.3273   -0.6662 C   0  0  0  0  0  0  0  0  0  0  0  0
    2.5594   -1.8494   -1.9331 C   0  0  0  0  0  0  0  0  0  0  0  0
    3.3843   -2.8852   -2.3843 C   0  0  0  0  0  0  0  0  0  0  0  0
    4.4176   -3.4053   -1.6134 C   0  0  0  0  0  0  0  0  0  0  0  0
    5.1221   -4.4200   -2.1349 N   0  0  0  0  0  0  0  0  0  0  0  0
    6.0842   -5.0134   -1.3949 C   0  0  0  0  0  0  0  0  0  0  0  0
    6.7779   -6.1656   -2.0065 C   0  0  0  0  0  0  0  0  0  0  0  0
    6.8554   -6.3171   -3.4037 C   0  0  0  0  0  0  0  0  0  0  0  0
    7.5392   -7.3911   -3.9760 C   0  0  0  0  0  0  0  0  0  0  0  0
    8.1658   -8.3382   -3.1648 C   0  0  0  0  0  0  0  0  0  0  0  0
    8.0959   -8.2178   -1.7838 C   0  0  0  0  0  0  0  0  0  0  0  0
    7.4050   -7.1491   -1.2124 C   0  0  0  0  0  0  0  0  0  0  0  0
    6.4130   -4.5425   -0.1357 C   0  0  0  0  0  0  0  0  0  0  0  0
    5.7882   -3.4085    0.3652 C   0  0  0  0  0  0  0  0  0  0  0  0
    6.2410   -2.8928    1.6973 C   0  0  0  0  0  0  0  0  0  0  0  0
    5.3330   -2.5545    2.4606 O   0  0  0  0  0  0  0  0  0  0  0  0
    7.6166   -2.8047    2.0632 N   0  0  0  0  0  0  0  0  0  0  0  0
    8.7649   -2.9855    1.1531 C   0  0  0  0  0  0  0  0  0  0  0  0
    7.9406   -2.3597    3.3723 C   0  0  0  0  0  0  0  0  0  0  0  0
    7.2247   -2.7177    4.4524 C   0  0  0  0  0  0  0  0  0  0  0  0
    7.5143   -2.2465    5.7800 C   0  0  0  0  0  0  0  0  0  0  0  0
    8.5264   -1.4100    5.9844 C   0  0  0  0  0  0  0  0  0  0  0  0
    9.3352   -1.0041    4.9420 N   0  0  0  0  0  0  0  0  0  0  0  0
   10.3950   -0.0374    5.1886 C   0  0  0  0  0  0  0  0  0  0  0  0
    9.1429   -1.4341    3.6286 C   0  0  0  0  0  0  0  0  0  0  0  0
    9.8831   -1.0634    2.7142 O   0  0  0  0  0  0  0  0  0  0  0  0
    4.6741   -2.8617   -0.3389 C   0  0  0  0  0  0  0  0  0  0  0  0
    3.7963   -1.8375    0.1196 C   0  0  0  0  0  0  0  0  0  0  0  0
    0.6585    1.1624   -0.3185 H   0  0  0  0  0  0  0  0  0  0  0  0
    0.1526   -0.4123   -0.9530 H   0  0  0  0  0  0  0  0  0  0  0  0
    1.3594    0.6017   -1.8352 H   0  0  0  0  0  0  0  0  0  0  0  0
    1.7793   -1.4894   -2.5949 H   0  0  0  0  0  0  0  0  0  0  0  0
    3.2093   -3.3033   -3.3744 H   0  0  0  0  0  0  0  0  0  0  0  0
    6.3835   -5.5890   -4.0586 H   0  0  0  0  0  0  0  0  0  0  0  0
    7.5891   -7.4870   -5.0581 H   0  0  0  0  0  0  0  0  0  0  0  0
    8.6939   -9.1770   -3.6118 H   0  0  0  0  0  0  0  0  0  0  0  0
    8.5737   -8.9553   -1.1428 H   0  0  0  0  0  0  0  0  0  0  0  0
    7.3596   -7.1084   -0.1280 H   0  0  0  0  0  0  0  0  0  0  0  0
    7.1667   -5.0465    0.4571 H   0  0  0  0  0  0  0  0  0  0  0  0
    8.5552   -3.5856    0.2744 H   0  0  0  0  0  0  0  0  0  0  0  0
    9.5654   -3.5035    1.6987 H   0  0  0  0  0  0  0  0  0  0  0  0
    9.1097   -2.0207    0.7777 H   0  0  0  0  0  0  0  0  0  0  0  0
    6.3790   -3.3957    4.3727 H   0  0  0  0  0  0  0  0  0  0  0  0
    6.8727   -2.5673    6.5940 H   0  0  0  0  0  0  0  0  0  0  0  0
    8.7432   -1.0191    6.9730 H   0  0  0  0  0  0  0  0  0  0  0  0
   10.5253    0.1550    6.2586 H   0  0  0  0  0  0  0  0  0  0  0  0
   10.1410    0.8974    4.6806 H   0  0  0  0  0  0  0  0  0  0  0  0
   11.3332   -0.4168    4.7748 H   0  0  0  0  0  0  0  0  0  0  0  0
    3.8957   -1.4317    1.1243 H   0  0  0  0  0  0  0  0  0  0  0  0
  1  2  1  0  0  0  0
  1 31  1  0  0  0  0
  1 32  1  0  0  0  0
  1 33  1  0  0  0  0
  2  3  1  0  0  0  0
  3  4  2  0  0  0  0
  3 30  1  0  0  0  0
  4  5  1  0  0  0  0
  4 34  1  0  0  0  0
  5  6  2  0  0  0  0
  5 35  1  0  0  0  0
  6  7  1  0  0  0  0
  6 29  1  0  0  0  0
  7  8  2  0  0  0  0
  8  9  1  0  0  0  0
  8 15  1  0  0  0  0
  9 10  2  0  0  0  0
  9 14  1  0  0  0  0
 10 11  1  0  0  0  0
 10 36  1  0  0  0  0
 11 12  2  0  0  0  0
 11 37  1  0  0  0  0
 12 13  1  0  0  0  0
 12 38  1  0  0  0  0
 13 14  2  0  0  0  0
 13 39  1  0  0  0  0
 14 40  1  0  0  0  0
 15 16  2  0  0  0  0
 15 41  1  0  0  0  0
 16 17  1  0  0  0  0
 16 29  1  0  0  0  0
 17 18  2  0  0  0  0
 17 19  1  0  0  0  0
 19 20  1  0  0  0  0
 19 21  1  0  0  0  0
 20 42  1  0  0  0  0
 20 43  1  0  0  0  0
 20 44  1  0  0  0  0
 21 22  2  0  0  0  0
 21 27  1  0  0  0  0
 22 23  1  0  0  0  0
 22 45  1  0  0  0  0
 23 24  2  0  0  0  0
 23 46  1  0  0  0  0
 24 25  1  0  0  0  0
 24 47  1  0  0  0  0
 25 26  1  0  0  0  0
 25 27  1  0  0  0  0
 26 48  1  0  0  0  0
 26 49  1  0  0  0  0
 26 50  1  0  0  0  0
 27 28  2  0  0  0  0
 29 30  2  0  0  0  0
 30 51  1  0  0  0  0
M  END
$$$$
