
 OpenBabel01122422393D

 50 53  0  0  1  0  0  0  0  0999 V2000
    0.9204   -0.1858    0.0469 C   0  0  0  0  0  0  0  0  0  0  0  0
    2.4452   -0.0427   -0.0270 C   0  0  3  0  0  0  0  0  0  0  0  0
    2.9615   -0.4951   -1.3058 N   0  0  0  0  0  0  0  0  0  0  0  0
    3.2289   -1.8212   -1.5419 C   0  0  0  0  0  0  0  0  0  0  0  0
    3.1199   -2.7154   -0.7121 O   0  0  0  0  0  0  0  0  0  0  0  0
    3.6738   -2.1603   -2.9682 C   0  0  0  0  0  0  0  0  0  0  0  0
    3.6604   -1.2339   -3.8763 N   0  0  0  0  0  0  0  0  0  0  0  0
    4.0226   -1.5880   -5.1741 N   0  0  0  0  0  0  0  0  0  0  0  0
    4.0004   -0.5001   -6.1181 C   0  0  0  0  0  0  0  0  0  0  0  0
    3.9176   -0.7275   -7.5043 C   0  0  0  0  0  0  0  0  0  0  0  0
    3.9336    0.3255   -8.4284 C   0  0  0  0  0  0  0  0  0  0  0  0
    4.0292    1.6395   -7.9890 C   0  0  0  0  0  0  0  0  0  0  0  0
    4.0968    1.8974   -6.6241 C   0  0  0  0  0  0  0  0  0  0  0  0
    4.0736    0.8429   -5.7047 C   0  0  0  0  0  0  0  0  0  0  0  0
    4.1839    1.1755   -4.4081 F   0  0  0  0  0  0  0  0  0  0  0  0
    4.3723   -2.8986   -5.5352 C   0  0  0  0  0  0  0  0  0  0  0  0
    4.7053   -3.3114   -6.6445 O   0  0  0  0  0  0  0  0  0  0  0  0
    4.3882   -3.8929   -4.4405 C   0  0  0  0  0  0  0  0  0  0  0  0
    4.0695   -3.5595   -3.1937 C   0  0  0  0  0  0  0  0  0  0  0  0
    2.8855    1.3775    0.2601 C   0  0  0  0  0  0  0  0  0  0  0  0
    3.7513    1.6420    1.3284 C   0  0  0  0  0  0  0  0  0  0  0  0
    4.1242    2.9550    1.6401 C   0  0  0  0  0  0  0  0  0  0  0  0
    3.6393    4.0502    0.9053 C   0  0  0  0  0  0  0  0  0  0  0  0
    3.9651    5.4437    1.2783 C   0  0  0  0  0  0  0  0  0  0  0  0
    4.0898    6.4679    0.3280 C   0  0  0  0  0  0  0  0  0  0  0  0
    4.3559    7.7796    0.7213 C   0  0  0  0  0  0  0  0  0  0  0  0
    4.5074    8.0429    2.0699 C   0  0  0  0  0  0  0  0  0  0  0  0
    4.4071    7.1007    3.0269 N   0  0  0  0  0  0  0  0  0  0  0  0
    4.1353    5.8380    2.6093 C   0  0  0  0  0  0  0  0  0  0  0  0
    2.8015    3.7651   -0.1874 C   0  0  0  0  0  0  0  0  0  0  0  0
    2.4337    2.4545   -0.5092 C   0  0  0  0  0  0  0  0  0  0  0  0
    0.6193   -1.2335   -0.0605 H   0  0  0  0  0  0  0  0  0  0  0  0
    0.4151    0.3785   -0.7449 H   0  0  0  0  0  0  0  0  0  0  0  0
    0.5397    0.1753    1.0095 H   0  0  0  0  0  0  0  0  0  0  0  0
    2.8598   -0.7017    0.7470 H   0  0  0  0  0  0  0  0  0  0  0  0
    3.0706    0.1540   -2.0805 H   0  0  0  0  0  0  0  0  0  0  0  0
    3.8113   -1.7285   -7.9124 H   0  0  0  0  0  0  0  0  0  0  0  0
    3.8715    0.1061   -9.4925 H   0  0  0  0  0  0  0  0  0  0  0  0
    4.0536    2.4555   -8.7059 H   0  0  0  0  0  0  0  0  0  0  0  0
    4.1827    2.9169   -6.2606 H   0  0  0  0  0  0  0  0  0  0  0  0
    4.6865   -4.8980   -4.7108 H   0  0  0  0  0  0  0  0  0  0  0  0
    4.0856   -4.2618   -2.3711 H   0  0  0  0  0  0  0  0  0  0  0  0
    4.1366    0.8278    1.9402 H   0  0  0  0  0  0  0  0  0  0  0  0
    4.8038    3.1049    2.4775 H   0  0  0  0  0  0  0  0  0  0  0  0
    3.9840    6.2581   -0.7334 H   0  0  0  0  0  0  0  0  0  0  0  0
    4.4414    8.5745   -0.0108 H   0  0  0  0  0  0  0  0  0  0  0  0
    4.7170    9.0470    2.4262 H   0  0  0  0  0  0  0  0  0  0  0  0
    4.0359    5.1264    3.4253 H   0  0  0  0  0  0  0  0  0  0  0  0
    2.3930    4.5683   -0.7968 H   0  0  0  0  0  0  0  0  0  0  0  0
    1.7726    2.2894   -1.3569 H   0  0  0  0  0  0  0  0  0  0  0  0
  1  2  1  0  0  0  0
  1 32  1  0  0  0  0
  1 33  1  0  0  0  0
  1 34  1  0  0  0  0
  2  3  1  0  0  0  0
  2 20  1  0  0  0  0
  2 35  1  0  0  0  0
  3  4  1  0  0  0  0
  3 36  1  0  0  0  0
  4  5  2  0  0  0  0
  4  6  1  0  0  0  0
  6  7  2  0  0  0  0
  6 19  1  0  0  0  0
  7  8  1  0  0  0  0
  8  9  1  0  0  0  0
  8 16  1  0  0  0  0
  9 10  2  0  0  0  0
  9 14  1  0  0  0  0
 10 11  1  0  0  0  0
 10 37  1  0  0  0  0
 11 12  2  0  0  0  0
 11 38  1  0  0  0  0
 12 13  1  0  0  0  0
 12 39  1  0  0  0  0
 13 14  2  0  0  0  0
 13 40  1  0  0  0  0
 14 15  1  0  0  0  0
 16 17  2  0  0  0  0
 16 18  1  0  0  0  0
 18 19  2  0  0  0  0
 18 41  1  0  0  0  0
 19 42  1  0  0  0  0
 20 21  2  0  0  0  0
 20 31  1  0  0  0  0
 21 22  1  0  0  0  0
 21 43  1  0  0  0  0
 22 23  2  0  0  0  0
 22 44  1  0  0  0  0
 23 24  1  0  0  0  0
 23 30  1  0  0  0  0
 24 25  2  0  0  0  0
 24 29  1  0  0  0  0
 25 26  1  0  0  0  0
 25 45  1  0  0  0  0
 26 27  2  0  0  0  0
 26 46  1  0  0  0  0
 27 28  1  0  0  0  0
 27 47  1  0  0  0  0
 28 29  2  0  0  0  0
 29 48  1  0  0  0  0
 30 31  2  0  0  0  0
 30 49  1  0  0  0  0
 31 50  1  0  0  0  0
M  END
$$$$
