
 OpenBabel01122422393D

 50 53  0  0  0  0  0  0  0  0999 V2000
    0.8852    0.3259    0.6848 N   0  0  0  0  0  0  0  0  0  0  0  0
    2.2728    0.1315    0.2789 C   0  0  0  0  0  0  0  0  0  0  0  0
    2.7881    1.3280   -0.4749 C   0  0  0  0  0  0  0  0  0  0  0  0
    2.7557    2.5945    0.1115 C   0  0  0  0  0  0  0  0  0  0  0  0
    3.1347    3.7210   -0.6190 C   0  0  0  0  0  0  0  0  0  0  0  0
    3.6041    3.6287   -1.9426 C   0  0  0  0  0  0  0  0  0  0  0  0
    3.9171    4.8524   -2.7197 C   0  0  0  0  0  0  0  0  0  0  0  0
    4.4566    5.9694   -2.0303 C   0  0  0  0  0  0  0  0  0  0  0  0
    4.7891    7.1681   -2.6655 C   0  0  0  0  0  0  0  0  0  0  0  0
    4.6431    7.2757   -4.0399 C   0  0  0  0  0  0  0  0  0  0  0  0
    4.1273    6.2133   -4.7550 C   0  0  0  0  0  0  0  0  0  0  0  0
    3.7318    5.0108   -4.1196 C   0  0  0  0  0  0  0  0  0  0  0  0
    3.1735    4.0003   -5.0583 C   0  0  0  0  0  0  0  0  0  0  0  0
    3.7543    3.8551   -6.1324 O   0  0  0  0  0  0  0  0  0  0  0  0
    2.0024    3.3421   -4.7146 N   0  0  0  0  0  0  0  0  0  0  0  0
    1.3792    2.3557   -5.4641 C   0  0  0  0  0  0  0  0  0  0  0  0
    1.9352    1.6693   -6.4791 C   0  0  0  0  0  0  0  0  0  0  0  0
    1.2209    0.6547   -7.2337 C   0  0  0  0  0  0  0  0  0  0  0  0
    1.8468   -0.0912   -8.3370 C   0  0  0  0  0  0  0  0  0  0  0  0
    1.7302    0.3545   -9.6541 C   0  0  0  0  0  0  0  0  0  0  0  0
    2.3629   -0.3726  -10.6506 C   0  0  0  0  0  0  0  0  0  0  0  0
    3.0882   -1.4883  -10.4206 N   0  0  0  0  0  0  0  0  0  0  0  0
    3.1955   -1.8911   -9.1366 C   0  0  0  0  0  0  0  0  0  0  0  0
    2.6008   -1.2347   -8.0711 C   0  0  0  0  0  0  0  0  0  0  0  0
   -0.0520    0.3853   -6.8999 C   0  0  0  0  0  0  0  0  0  0  0  0
   -0.6657    1.0623   -5.8733 N   0  0  0  0  0  0  0  0  0  0  0  0
   -0.0546    2.0408   -5.1203 C   0  0  0  0  0  0  0  0  0  0  0  0
   -0.6440    2.6392   -4.2231 O   0  0  0  0  0  0  0  0  0  0  0  0
    3.7453    2.3310   -2.4680 C   0  0  0  0  0  0  0  0  0  0  0  0
    3.3059    1.2045   -1.7656 C   0  0  0  0  0  0  0  0  0  0  0  0
    0.5420   -0.5217    1.1324 H   0  0  0  0  0  0  0  0  0  0  0  0
    0.3179    0.4694   -0.1492 H   0  0  0  0  0  0  0  0  0  0  0  0
    2.3421   -0.7694   -0.3385 H   0  0  0  0  0  0  0  0  0  0  0  0
    2.8999   -0.0272    1.1638 H   0  0  0  0  0  0  0  0  0  0  0  0
    2.3909    2.7134    1.1308 H   0  0  0  0  0  0  0  0  0  0  0  0
    3.0303    4.6859   -0.1234 H   0  0  0  0  0  0  0  0  0  0  0  0
    4.6434    5.9188   -0.9535 H   0  0  0  0  0  0  0  0  0  0  0  0
    5.1810    7.9988   -2.0877 H   0  0  0  0  0  0  0  0  0  0  0  0
    4.9217    8.1824   -4.5449 H   0  0  0  0  0  0  0  0  0  0  0  0
    4.0312    6.3005   -5.8419 H   0  0  0  0  0  0  0  0  0  0  0  0
    1.5164    3.6170   -3.8659 H   0  0  0  0  0  0  0  0  0  0  0  0
    2.9726    1.8230   -6.7677 H   0  0  0  0  0  0  0  0  0  0  0  0
    1.1735    1.2510   -9.9045 H   0  0  0  0  0  0  0  0  0  0  0  0
    2.3071   -0.0639  -11.6904 H   0  0  0  0  0  0  0  0  0  0  0  0
    3.7963   -2.7816   -8.9794 H   0  0  0  0  0  0  0  0  0  0  0  0
    2.7333   -1.6033   -7.0614 H   0  0  0  0  0  0  0  0  0  0  0  0
   -0.6534   -0.3605   -7.4122 H   0  0  0  0  0  0  0  0  0  0  0  0
   -1.6317    0.8661   -5.6443 H   0  0  0  0  0  0  0  0  0  0  0  0
    4.1747    2.1761   -3.4554 H   0  0  0  0  0  0  0  0  0  0  0  0
    3.3597    0.2320   -2.2497 H   0  0  0  0  0  0  0  0  0  0  0  0
  1  2  1  0  0  0  0
  1 31  1  0  0  0  0
  1 32  1  0  0  0  0
  2  3  1  0  0  0  0
  2 33  1  0  0  0  0
  2 34  1  0  0  0  0
  3  4  2  0  0  0  0
  3 30  1  0  0  0  0
  4  5  1  0  0  0  0
  4 35  1  0  0  0  0
  5  6  2  0  0  0  0
  5 36  1  0  0  0  0
  6  7  1  0  0  0  0
  6 29  1  0  0  0  0
  7  8  2  0  0  0  0
  7 12  1  0  0  0  0
  8  9  1  0  0  0  0
  8 37  1  0  0  0  0
  9 10  2  0  0  0  0
  9 38  1  0  0  0  0
 10 11  1  0  0  0  0
 10 39  1  0  0  0  0
 11 12  2  0  0  0  0
 11 40  1  0  0  0  0
 12 13  1  0  0  0  0
 13 14  2  0  0  0  0
 13 15  1  0  0  0  0
 15 16  1  0  0  0  0
 15 41  1  0  0  0  0
 16 17  2  0  0  0  0
 16 27  1  0  0  0  0
 17 18  1  0  0  0  0
 17 42  1  0  0  0  0
 18 19  1  0  0  0  0
 18 25  2  0  0  0  0
 19 20  2  0  0  0  0
 19 24  1  0  0  0  0
 20 21  1  0  0  0  0
 20 43  1  0  0  0  0
 21 22  2  0  0  0  0
 21 44  1  0  0  0  0
 22 23  1  0  0  0  0
 23 24  2  0  0  0  0
 23 45  1  0  0  0  0
 24 46  1  0  0  0  0
 25 26  1  0  0  0  0
 25 47  1  0  0  0  0
 26 27  1  0  0  0  0
 26 48  1  0  0  0  0
 27 28  2  0  0  0  0
 29 30  2  0  0  0  0
 29 49  1  0  0  0  0
 30 50  1  0  0  0  0
M  END
$$$$
