
 OpenBabel01122422393D

 44 47  0  0  0  0  0  0  0  0999 V2000
    2.4960   -1.1295    0.8101 O   0  0  0  0  0  0  0  0  0  0  0  0
    3.3431   -0.2595    0.6077 C   0  0  0  0  0  0  0  0  0  0  0  0
    3.4540    0.9613    1.2153 N   0  0  0  0  0  0  0  0  0  0  0  0
    2.6184    1.5287    2.1829 C   0  0  0  0  0  0  0  0  0  0  0  0
    1.4206    0.9646    2.6168 C   0  0  0  0  0  0  0  0  0  0  0  0
    0.6664    1.5953    3.6100 C   0  0  0  0  0  0  0  0  0  0  0  0
    1.1338    2.7694    4.2103 C   0  0  0  0  0  0  0  0  0  0  0  0
    2.3526    3.3239    3.8097 C   0  0  0  0  0  0  0  0  0  0  0  0
    2.9721    4.5003    4.5210 C   0  0  0  0  0  0  0  0  0  0  0  0
    2.5842    5.7902    3.9628 N   0  0  0  0  0  0  0  0  0  0  0  0
    1.5055    6.4646    4.5204 C   0  0  0  0  0  0  0  0  0  0  0  0
    1.1124    7.6509    4.0382 C   0  0  0  0  0  0  0  0  0  0  0  0
    1.7964    8.2354    2.9246 C   0  0  0  0  0  0  0  0  0  0  0  0
    2.8531    7.6180    2.3658 C   0  0  0  0  0  0  0  0  0  0  0  0
    3.3226    6.3249    2.8974 C   0  0  0  0  0  0  0  0  0  0  0  0
    4.3101    5.7862    2.4035 O   0  0  0  0  0  0  0  0  0  0  0  0
    3.0550    2.7261    2.7555 C   0  0  0  0  0  0  0  0  0  0  0  0
    4.3945   -0.4857   -0.4328 C   0  0  0  0  0  0  0  0  0  0  0  0
    4.3768   -1.6358   -1.2046 C   0  0  0  0  0  0  0  0  0  0  0  0
    5.2330   -1.6890   -2.2968 C   0  0  0  0  0  0  0  0  0  0  0  0
    6.2037   -0.6963   -2.4590 C   0  0  0  0  0  0  0  0  0  0  0  0
    7.2092   -0.8105   -3.4301 C   0  0  0  0  0  0  0  0  0  0  0  0
    8.2271    0.1333   -3.4670 C   0  0  0  0  0  0  0  0  0  0  0  0
    9.2498   -0.0370   -4.3172 F   0  0  0  0  0  0  0  0  0  0  0  0
    8.2079    1.2183   -2.6024 C   0  0  0  0  0  0  0  0  0  0  0  0
    9.1976    2.1216   -2.6340 F   0  0  0  0  0  0  0  0  0  0  0  0
    7.1873    1.3647   -1.6757 C   0  0  0  0  0  0  0  0  0  0  0  0
    6.1920    0.4068   -1.5692 C   0  0  0  0  0  0  0  0  0  0  0  0
    5.2787    0.5385   -0.6031 N   0  0  0  0  0  0  0  0  0  0  0  0
    4.2666    1.4971    0.9240 H   0  0  0  0  0  0  0  0  0  0  0  0
    1.0466    0.0374    2.1939 H   0  0  0  0  0  0  0  0  0  0  0  0
   -0.2723    1.1518    3.9306 H   0  0  0  0  0  0  0  0  0  0  0  0
    0.5473    3.2236    5.0036 H   0  0  0  0  0  0  0  0  0  0  0  0
    4.0667    4.4099    4.4768 H   0  0  0  0  0  0  0  0  0  0  0  0
    2.7230    4.4659    5.5882 H   0  0  0  0  0  0  0  0  0  0  0  0
    1.0083    5.9987    5.3590 H   0  0  0  0  0  0  0  0  0  0  0  0
    0.2755    8.1797    4.4808 H   0  0  0  0  0  0  0  0  0  0  0  0
    1.4402    9.1868    2.5358 H   0  0  0  0  0  0  0  0  0  0  0  0
    3.3930    8.0311    1.5246 H   0  0  0  0  0  0  0  0  0  0  0  0
    3.9808    3.1843    2.4109 H   0  0  0  0  0  0  0  0  0  0  0  0
    3.6986   -2.4495   -0.9764 H   0  0  0  0  0  0  0  0  0  0  0  0
    5.1533   -2.5235   -2.9909 H   0  0  0  0  0  0  0  0  0  0  0  0
    7.2487   -1.6566   -4.1093 H   0  0  0  0  0  0  0  0  0  0  0  0
    7.1916    2.2173   -1.0036 H   0  0  0  0  0  0  0  0  0  0  0  0
  1  2  2  0  0  0  0
  2  3  1  0  0  0  0
  2 18  1  0  0  0  0
  3  4  1  0  0  0  0
  3 30  1  0  0  0  0
  4  5  2  0  0  0  0
  4 17  1  0  0  0  0
  5  6  1  0  0  0  0
  5 31  1  0  0  0  0
  6  7  2  0  0  0  0
  6 32  1  0  0  0  0
  7  8  1  0  0  0  0
  7 33  1  0  0  0  0
  8  9  1  0  0  0  0
  8 17  2  0  0  0  0
  9 10  1  0  0  0  0
  9 34  1  0  0  0  0
  9 35  1  0  0  0  0
 10 11  1  0  0  0  0
 10 15  1  0  0  0  0
 11 12  2  0  0  0  0
 11 36  1  0  0  0  0
 12 13  1  0  0  0  0
 12 37  1  0  0  0  0
 13 14  2  0  0  0  0
 13 38  1  0  0  0  0
 14 15  1  0  0  0  0
 14 39  1  0  0  0  0
 15 16  2  0  0  0  0
 17 40  1  0  0  0  0
 18 19  2  0  0  0  0
 18 29  1  0  0  0  0
 19 20  1  0  0  0  0
 19 41  1  0  0  0  0
 20 21  2  0  0  0  0
 20 42  1  0  0  0  0
 21 22  1  0  0  0  0
 21 28  1  0  0  0  0
 22 23  2  0  0  0  0
 22 43  1  0  0  0  0
 23 24  1  0  0  0  0
 23 25  1  0  0  0  0
 25 26  1  0  0  0  0
 25 27  2  0  0  0  0
 27 28  1  0  0  0  0
 27 44  1  0  0  0  0
 28 29  2  0  0  0  0
M  END
$$$$
