
 OpenBabel01122422393D

 44 47  0  0  0  0  0  0  0  0999 V2000
    2.7452    2.7979    0.6656 O   0  0  0  0  0  0  0  0  0  0  0  0
    3.1437    1.6436    0.5061 C   0  0  0  0  0  0  0  0  0  0  0  0
    2.9926    0.9991   -0.6997 N   0  0  0  0  0  0  0  0  0  0  0  0
    2.2903    1.6203   -1.8125 C   0  0  0  0  0  0  0  0  0  0  0  0
    3.1744    2.4915   -2.6807 C   0  0  0  0  0  0  0  0  0  0  0  0
    3.4344    3.8089   -2.3134 C   0  0  0  0  0  0  0  0  0  0  0  0
    4.3226    4.5643   -3.0772 C   0  0  0  0  0  0  0  0  0  0  0  0
    4.7146    5.8496   -2.7688 O   0  0  0  0  0  0  0  0  0  0  0  0
    4.8177    6.2260   -1.4455 C   0  0  0  0  0  0  0  0  0  0  0  0
    5.2323    5.3663   -0.4177 C   0  0  0  0  0  0  0  0  0  0  0  0
    5.2274    5.8020    0.9085 C   0  0  0  0  0  0  0  0  0  0  0  0
    4.8785    7.1158    1.1936 C   0  0  0  0  0  0  0  0  0  0  0  0
    4.8664    7.5298    2.4680 F   0  0  0  0  0  0  0  0  0  0  0  0
    4.5509    7.9944    0.1670 C   0  0  0  0  0  0  0  0  0  0  0  0
    4.2514    9.2709    0.4450 F   0  0  0  0  0  0  0  0  0  0  0  0
    4.5187    7.5585   -1.1548 C   0  0  0  0  0  0  0  0  0  0  0  0
    4.8298    4.0296   -4.2538 C   0  0  0  0  0  0  0  0  0  0  0  0
    4.4909    2.7268   -4.5715 C   0  0  0  0  0  0  0  0  0  0  0  0
    3.7026    1.9398   -3.8024 N   0  0  0  0  0  0  0  0  0  0  0  0
    3.7595    0.8975    1.5746 C   0  0  0  0  0  0  0  0  0  0  0  0
    3.9225    1.2167    2.9010 C   0  0  0  0  0  0  0  0  0  0  0  0
    4.5616    0.0965    3.4867 C   0  0  0  0  0  0  0  0  0  0  0  0
    4.9054   -0.0638    4.9047 C   0  0  0  0  0  0  0  0  0  0  0  0
    5.6229   -1.1607    5.3718 C   0  0  0  0  0  0  0  0  0  0  0  0
    5.8756   -1.2641    6.7398 C   0  0  0  0  0  0  0  0  0  0  0  0
    5.4118   -0.2750    7.5986 C   0  0  0  0  0  0  0  0  0  0  0  0
    4.7189    0.7903    7.0525 C   0  0  0  0  0  0  0  0  0  0  0  0
    4.4581    0.9191    5.7322 N   0  0  0  0  0  0  0  0  0  0  0  0
    4.7997   -0.8401    2.5493 N   0  0  0  0  0  0  0  0  0  0  0  0
    4.2888   -0.3389    1.3597 O   0  0  0  0  0  0  0  0  0  0  0  0
    3.3191    0.0448   -0.8044 H   0  0  0  0  0  0  0  0  0  0  0  0
    1.4537    2.2145   -1.4274 H   0  0  0  0  0  0  0  0  0  0  0  0
    1.8634    0.8140   -2.4184 H   0  0  0  0  0  0  0  0  0  0  0  0
    2.9660    4.2217   -1.4255 H   0  0  0  0  0  0  0  0  0  0  0  0
    5.5269    4.3413   -0.6298 H   0  0  0  0  0  0  0  0  0  0  0  0
    5.4808    5.1205    1.7140 H   0  0  0  0  0  0  0  0  0  0  0  0
    4.2471    8.2546   -1.9418 H   0  0  0  0  0  0  0  0  0  0  0  0
    5.4759    4.6101   -4.9022 H   0  0  0  0  0  0  0  0  0  0  0  0
    4.8607    2.2620   -5.4812 H   0  0  0  0  0  0  0  0  0  0  0  0
    3.5991    2.1240    3.3907 H   0  0  0  0  0  0  0  0  0  0  0  0
    5.9769   -1.9297    4.6934 H   0  0  0  0  0  0  0  0  0  0  0  0
    6.4262   -2.1153    7.1315 H   0  0  0  0  0  0  0  0  0  0  0  0
    5.5848   -0.3330    8.6683 H   0  0  0  0  0  0  0  0  0  0  0  0
    4.3373    1.5913    7.6805 H   0  0  0  0  0  0  0  0  0  0  0  0
  1  2  2  0  0  0  0
  2  3  1  0  0  0  0
  2 20  1  0  0  0  0
  3  4  1  0  0  0  0
  3 31  1  0  0  0  0
  4  5  1  0  0  0  0
  4 32  1  0  0  0  0
  4 33  1  0  0  0  0
  5  6  2  0  0  0  0
  5 19  1  0  0  0  0
  6  7  1  0  0  0  0
  6 34  1  0  0  0  0
  7  8  1  0  0  0  0
  7 17  2  0  0  0  0
  8  9  1  0  0  0  0
  9 10  2  0  0  0  0
  9 16  1  0  0  0  0
 10 11  1  0  0  0  0
 10 35  1  0  0  0  0
 11 12  2  0  0  0  0
 11 36  1  0  0  0  0
 12 13  1  0  0  0  0
 12 14  1  0  0  0  0
 14 15  1  0  0  0  0
 14 16  2  0  0  0  0
 16 37  1  0  0  0  0
 17 18  1  0  0  0  0
 17 38  1  0  0  0  0
 18 19  2  0  0  0  0
 18 39  1  0  0  0  0
 20 21  2  0  0  0  0
 20 30  1  0  0  0  0
 21 22  1  0  0  0  0
 21 40  1  0  0  0  0
 22 23  1  0  0  0  0
 22 29  2  0  0  0  0
 23 24  2  0  0  0  0
 23 28  1  0  0  0  0
 24 25  1  0  0  0  0
 24 41  1  0  0  0  0
 25 26  2  0  0  0  0
 25 42  1  0  0  0  0
 26 27  1  0  0  0  0
 26 43  1  0  0  0  0
 27 28  2  0  0  0  0
 27 44  1  0  0  0  0
 29 30  1  0  0  0  0
M  END
$$$$
