
 OpenBabel01122422393D

 47 50  0  0  0  0  0  0  0  0999 V2000
    2.9256    1.3216   -0.0393 O   0  0  0  0  0  0  0  0  0  0  0  0
    2.3559    0.3637   -0.5564 C   0  0  0  0  0  0  0  0  0  0  0  0
    0.8348    0.2986   -0.6650 C   0  0  0  0  0  0  0  0  0  0  0  0
    0.2775   -0.2315    0.5678 N   0  0  0  0  0  0  0  0  0  0  0  0
   -0.1089    0.6234    1.5717 C   0  0  0  0  0  0  0  0  0  0  0  0
   -0.6543    0.2518    2.6830 N   0  0  0  0  0  0  0  0  0  0  0  0
   -0.8920   -1.1182    2.8678 C   0  0  0  0  0  0  0  0  0  0  0  0
   -1.5622   -1.5370    4.0214 C   0  0  0  0  0  0  0  0  0  0  0  0
   -1.8555   -2.8887    4.2164 C   0  0  0  0  0  0  0  0  0  0  0  0
   -1.4715   -3.8205    3.2572 C   0  0  0  0  0  0  0  0  0  0  0  0
   -1.7753   -5.1121    3.4366 F   0  0  0  0  0  0  0  0  0  0  0  0
   -0.7884   -3.4320    2.1127 C   0  0  0  0  0  0  0  0  0  0  0  0
   -0.5051   -2.0773    1.9258 C   0  0  0  0  0  0  0  0  0  0  0  0
    0.1868   -1.6061    0.7129 C   0  0  0  0  0  0  0  0  0  0  0  0
    0.6531   -2.4069   -0.0942 O   0  0  0  0  0  0  0  0  0  0  0  0
    3.0081   -0.7562   -1.0134 N   0  0  0  0  0  0  0  0  0  0  0  0
    4.4511   -0.8759   -0.9523 C   0  0  0  0  0  0  0  0  0  0  0  0
    4.9904   -1.8017   -2.0206 C   0  0  0  0  0  0  0  0  0  0  0  0
    5.6573   -2.9700   -1.6681 C   0  0  0  0  0  0  0  0  0  0  0  0
    6.0823   -3.8361   -2.6779 C   0  0  0  0  0  0  0  0  0  0  0  0
    6.6924   -5.0537   -2.4535 O   0  0  0  0  0  0  0  0  0  0  0  0
    6.3528   -5.7724   -1.3276 C   0  0  0  0  0  0  0  0  0  0  0  0
    5.0625   -5.8060   -0.7943 C   0  0  0  0  0  0  0  0  0  0  0  0
    4.8395   -6.4557    0.4114 C   0  0  0  0  0  0  0  0  0  0  0  0
    3.6272   -6.3891    0.9765 F   0  0  0  0  0  0  0  0  0  0  0  0
    5.8603   -7.1458    1.0525 C   0  0  0  0  0  0  0  0  0  0  0  0
    7.1255   -7.2009    0.4679 C   0  0  0  0  0  0  0  0  0  0  0  0
    7.3729   -6.5125   -0.7231 C   0  0  0  0  0  0  0  0  0  0  0  0
    5.9284   -3.4629   -4.0064 C   0  0  0  0  0  0  0  0  0  0  0  0
    5.2809   -2.2712   -4.2723 C   0  0  0  0  0  0  0  0  0  0  0  0
    4.7930   -1.4500   -3.3167 N   0  0  0  0  0  0  0  0  0  0  0  0
    0.5490   -0.3371   -1.5160 H   0  0  0  0  0  0  0  0  0  0  0  0
    0.4599    1.3058   -0.8562 H   0  0  0  0  0  0  0  0  0  0  0  0
    0.0752    1.6900    1.3721 H   0  0  0  0  0  0  0  0  0  0  0  0
   -1.8633   -0.8023    4.7643 H   0  0  0  0  0  0  0  0  0  0  0  0
   -2.3863   -3.2173    5.1047 H   0  0  0  0  0  0  0  0  0  0  0  0
   -0.4982   -4.1750    1.3774 H   0  0  0  0  0  0  0  0  0  0  0  0
    2.4635   -1.5990   -1.1824 H   0  0  0  0  0  0  0  0  0  0  0  0
    4.6990   -1.2453    0.0496 H   0  0  0  0  0  0  0  0  0  0  0  0
    4.9143    0.1099   -1.0650 H   0  0  0  0  0  0  0  0  0  0  0  0
    5.8137   -3.2077   -0.6215 H   0  0  0  0  0  0  0  0  0  0  0  0
    4.2326   -5.2999   -1.2752 H   0  0  0  0  0  0  0  0  0  0  0  0
    5.6612   -7.6372    1.9993 H   0  0  0  0  0  0  0  0  0  0  0  0
    7.9221   -7.7634    0.9489 H   0  0  0  0  0  0  0  0  0  0  0  0
    8.3653   -6.5402   -1.1672 H   0  0  0  0  0  0  0  0  0  0  0  0
    6.2950   -4.0868   -4.8132 H   0  0  0  0  0  0  0  0  0  0  0  0
    5.1273   -1.9331   -5.2932 H   0  0  0  0  0  0  0  0  0  0  0  0
  1  2  2  0  0  0  0
  2  3  1  0  0  0  0
  2 16  1  0  0  0  0
  3  4  1  0  0  0  0
  3 32  1  0  0  0  0
  3 33  1  0  0  0  0
  4  5  1  0  0  0  0
  4 14  1  0  0  0  0
  5  6  2  0  0  0  0
  5 34  1  0  0  0  0
  6  7  1  0  0  0  0
  7  8  2  0  0  0  0
  7 13  1  0  0  0  0
  8  9  1  0  0  0  0
  8 35  1  0  0  0  0
  9 10  2  0  0  0  0
  9 36  1  0  0  0  0
 10 11  1  0  0  0  0
 10 12  1  0  0  0  0
 12 13  2  0  0  0  0
 12 37  1  0  0  0  0
 13 14  1  0  0  0  0
 14 15  2  0  0  0  0
 16 17  1  0  0  0  0
 16 38  1  0  0  0  0
 17 18  1  0  0  0  0
 17 39  1  0  0  0  0
 17 40  1  0  0  0  0
 18 19  2  0  0  0  0
 18 31  1  0  0  0  0
 19 20  1  0  0  0  0
 19 41  1  0  0  0  0
 20 21  1  0  0  0  0
 20 29  2  0  0  0  0
 21 22  1  0  0  0  0
 22 23  2  0  0  0  0
 22 28  1  0  0  0  0
 23 24  1  0  0  0  0
 23 42  1  0  0  0  0
 24 25  1  0  0  0  0
 24 26  2  0  0  0  0
 26 27  1  0  0  0  0
 26 43  1  0  0  0  0
 27 28  2  0  0  0  0
 27 44  1  0  0  0  0
 28 45  1  0  0  0  0
 29 30  1  0  0  0  0
 29 46  1  0  0  0  0
 30 31  2  0  0  0  0
 30 47  1  0  0  0  0
M  END
$$$$
