
 OpenBabel01122422393D

 53 56  0  0  0  0  0  0  0  0999 V2000
    0.8866   -0.3255    1.0553 C   0  0  0  0  0  0  0  0  0  0  0  0
    2.3359   -0.3333    1.0416 N   0  0  0  0  0  0  0  0  0  0  0  0
    3.0154    0.7687    1.5246 C   0  0  0  0  0  0  0  0  0  0  0  0
    2.4778    1.7821    1.9703 O   0  0  0  0  0  0  0  0  0  0  0  0
    4.3812    0.7089    1.4876 N   0  0  0  0  0  0  0  0  0  0  0  0
    5.0922   -0.3573    0.9447 C   0  0  0  0  0  0  0  0  0  0  0  0
    6.4825   -0.3109    0.8901 C   0  0  0  0  0  0  0  0  0  0  0  0
    7.2121   -1.3662    0.3086 C   0  0  0  0  0  0  0  0  0  0  0  0
    8.6967   -1.2429    0.3276 C   0  0  0  0  0  0  0  0  0  0  0  0
    9.1657   -0.2870    0.9398 O   0  0  0  0  0  0  0  0  0  0  0  0
    9.4412   -2.1810   -0.3724 N   0  0  0  0  0  0  0  0  0  0  0  0
   10.8547   -2.2365   -0.3654 C   0  0  0  0  0  0  0  0  0  0  0  0
   11.6254   -1.6365    0.6387 C   0  0  0  0  0  0  0  0  0  0  0  0
   13.0156   -1.6328    0.5674 C   0  0  0  0  0  0  0  0  0  0  0  0
   13.6527   -2.2197   -0.5167 C   0  0  0  0  0  0  0  0  0  0  0  0
   12.9023   -2.8390   -1.5256 C   0  0  0  0  0  0  0  0  0  0  0  0
   13.6109   -3.3431   -2.7541 C   0  0  0  0  0  0  0  0  0  0  0  0
   14.2296   -4.6048   -2.5016 O   0  0  0  0  0  0  0  0  0  0  0  0
   14.8547   -5.1286   -3.6050 C   0  0  0  0  0  0  0  0  0  0  0  0
   15.4869   -4.3606   -4.5847 C   0  0  0  0  0  0  0  0  0  0  0  0
   16.0282   -4.9659   -5.7157 C   0  0  0  0  0  0  0  0  0  0  0  0
   15.9580   -6.3523   -5.8737 C   0  0  0  0  0  0  0  0  0  0  0  0
   16.4968   -6.9804   -7.1274 C   0  0  0  0  0  0  0  0  0  0  0  0
   17.9872   -7.2609   -7.0242 C   0  0  0  0  0  0  0  0  0  0  0  0
   19.2235   -7.4935   -6.9385 N   0  0  0  0  0  0  0  0  0  0  0  0
   15.4092   -7.1310   -4.8455 C   0  0  0  0  0  0  0  0  0  0  0  0
   14.8587   -6.5181   -3.7150 C   0  0  0  0  0  0  0  0  0  0  0  0
   11.5024   -2.8901   -1.4187 C   0  0  0  0  0  0  0  0  0  0  0  0
    6.5213   -2.4683   -0.2171 C   0  0  0  0  0  0  0  0  0  0  0  0
    5.1232   -2.5149   -0.1409 C   0  0  0  0  0  0  0  0  0  0  0  0
    4.4168   -1.4587    0.4451 C   0  0  0  0  0  0  0  0  0  0  0  0
    2.9469   -1.4791    0.5364 C   0  0  0  0  0  0  0  0  0  0  0  0
    2.3386   -2.4803    0.1645 O   0  0  0  0  0  0  0  0  0  0  0  0
    0.4766    0.6158    1.4295 H   0  0  0  0  0  0  0  0  0  0  0  0
    0.5317   -1.1488    1.6835 H   0  0  0  0  0  0  0  0  0  0  0  0
    0.5270   -0.4912    0.0348 H   0  0  0  0  0  0  0  0  0  0  0  0
    4.8631    1.5249    1.8439 H   0  0  0  0  0  0  0  0  0  0  0  0
    7.0106    0.5466    1.3046 H   0  0  0  0  0  0  0  0  0  0  0  0
    8.9776   -2.7486   -1.0682 H   0  0  0  0  0  0  0  0  0  0  0  0
   11.1638   -1.1630    1.4984 H   0  0  0  0  0  0  0  0  0  0  0  0
   13.5928   -1.1423    1.3462 H   0  0  0  0  0  0  0  0  0  0  0  0
   14.7367   -2.1683   -0.5895 H   0  0  0  0  0  0  0  0  0  0  0  0
   14.3583   -2.5828   -3.0103 H   0  0  0  0  0  0  0  0  0  0  0  0
   12.9036   -3.4253   -3.5900 H   0  0  0  0  0  0  0  0  0  0  0  0
   15.5849   -3.2845   -4.4987 H   0  0  0  0  0  0  0  0  0  0  0  0
   16.5014   -4.3414   -6.4705 H   0  0  0  0  0  0  0  0  0  0  0  0
   16.3119   -6.3244   -7.9866 H   0  0  0  0  0  0  0  0  0  0  0  0
   15.9693   -7.9189   -7.3357 H   0  0  0  0  0  0  0  0  0  0  0  0
   15.3946   -8.2171   -4.9157 H   0  0  0  0  0  0  0  0  0  0  0  0
   14.4138   -7.1252   -2.9305 H   0  0  0  0  0  0  0  0  0  0  0  0
   10.9277   -3.3824   -2.1991 H   0  0  0  0  0  0  0  0  0  0  0  0
    7.0327   -3.3074   -0.6744 H   0  0  0  0  0  0  0  0  0  0  0  0
    4.5867   -3.3763   -0.5347 H   0  0  0  0  0  0  0  0  0  0  0  0
  1  2  1  0  0  0  0
  1 34  1  0  0  0  0
  1 35  1  0  0  0  0
  1 36  1  0  0  0  0
  2  3  1  0  0  0  0
  2 32  1  0  0  0  0
  3  4  2  0  0  0  0
  3  5  1  0  0  0  0
  5  6  1  0  0  0  0
  5 37  1  0  0  0  0
  6  7  2  0  0  0  0
  6 31  1  0  0  0  0
  7  8  1  0  0  0  0
  7 38  1  0  0  0  0
  8  9  1  0  0  0  0
  8 29  2  0  0  0  0
  9 10  2  0  0  0  0
  9 11  1  0  0  0  0
 11 12  1  0  0  0  0
 11 39  1  0  0  0  0
 12 13  2  0  0  0  0
 12 28  1  0  0  0  0
 13 14  1  0  0  0  0
 13 40  1  0  0  0  0
 14 15  2  0  0  0  0
 14 41  1  0  0  0  0
 15 16  1  0  0  0  0
 15 42  1  0  0  0  0
 16 17  1  0  0  0  0
 16 28  2  0  0  0  0
 17 18  1  0  0  0  0
 17 43  1  0  0  0  0
 17 44  1  0  0  0  0
 18 19  1  0  0  0  0
 19 20  2  0  0  0  0
 19 27  1  0  0  0  0
 20 21  1  0  0  0  0
 20 45  1  0  0  0  0
 21 22  2  0  0  0  0
 21 46  1  0  0  0  0
 22 23  1  0  0  0  0
 22 26  1  0  0  0  0
 23 24  1  0  0  0  0
 23 47  1  0  0  0  0
 23 48  1  0  0  0  0
 24 25  3  0  0  0  0
 26 27  2  0  0  0  0
 26 49  1  0  0  0  0
 27 50  1  0  0  0  0
 28 51  1  0  0  0  0
 29 30  1  0  0  0  0
 29 52  1  0  0  0  0
 30 31  2  0  0  0  0
 30 53  1  0  0  0  0
 31 32  1  0  0  0  0
 32 33  2  0  0  0  0
M  END
$$$$
