
 OpenBabel01122422393D

 54 57  0  0  1  0  0  0  0  0999 V2000
    2.6627   -1.5772   -0.2637 C   0  0  0  0  0  0  0  0  0  0  0  0
    2.4766   -0.0553   -0.1850 C   0  0  3  0  0  0  0  0  0  0  0  0
    1.0469    0.2401   -0.3450 N   0  0  0  0  0  0  0  0  0  0  0  0
    0.4436    0.2976   -1.5749 C   0  0  0  0  0  0  0  0  0  0  0  0
    1.0693    0.3209   -2.6282 O   0  0  0  0  0  0  0  0  0  0  0  0
   -1.0382    0.3513   -1.6252 C   0  0  0  0  0  0  0  0  0  0  0  0
   -1.6277    1.0440   -2.7000 C   0  0  0  0  0  0  0  0  0  0  0  0
   -3.0231    1.0699   -2.8780 C   0  0  0  0  0  0  0  0  0  0  0  0
   -3.8605    0.3642   -2.0132 C   0  0  0  0  0  0  0  0  0  0  0  0
   -3.2819   -0.3249   -0.9619 C   0  0  0  0  0  0  0  0  0  0  0  0
   -1.8956   -0.3024   -0.7594 C   0  0  0  0  0  0  0  0  0  0  0  0
   -1.6998   -1.0578    0.4795 C   0  0  0  0  0  0  0  0  0  0  0  0
   -0.6677   -1.1887    1.1096 O   0  0  0  0  0  0  0  0  0  0  0  0
   -2.9429   -1.5256    0.8512 N   0  0  0  0  0  0  0  0  0  0  0  0
   -3.9686   -1.1440   -0.0339 N   0  0  0  0  0  0  0  0  0  0  0  0
    3.0359    0.6094    1.1231 C   0  0  3  0  0  0  0  0  0  0  0  0
    2.4573    0.0523    2.3422 N   0  0  0  0  0  0  0  0  0  0  0  0
    1.3261    0.5256    2.9586 C   0  0  0  0  0  0  0  0  0  0  0  0
    0.6733    1.4746    2.5406 O   0  0  0  0  0  0  0  0  0  0  0  0
    0.9070   -0.1800    4.2068 C   0  0  0  0  0  0  0  0  0  0  0  0
   -0.2453    0.2569    4.8770 C   0  0  0  0  0  0  0  0  0  0  0  0
   -0.6711   -0.3835    6.0484 C   0  0  0  0  0  0  0  0  0  0  0  0
    0.0524   -1.4659    6.5618 C   0  0  0  0  0  0  0  0  0  0  0  0
   -0.3833   -2.1314    7.7535 C   0  0  0  0  0  0  0  0  0  0  0  0
   -0.7335   -2.6783    8.7150 N   0  0  0  0  0  0  0  0  0  0  0  0
    1.2036   -1.9007    5.9049 C   0  0  0  0  0  0  0  0  0  0  0  0
    1.6198   -1.2590    4.7402 C   0  0  0  0  0  0  0  0  0  0  0  0
    2.7353   -1.7168    4.1499 F   0  0  0  0  0  0  0  0  0  0  0  0
    4.5555    0.5888    1.2499 C   0  0  0  0  0  0  0  0  0  0  0  0
    5.2704    1.7970    1.2738 C   0  0  0  0  0  0  0  0  0  0  0  0
    6.6621    1.8029    1.4040 C   0  0  0  0  0  0  0  0  0  0  0  0
    7.3622    0.6029    1.5028 C   0  0  0  0  0  0  0  0  0  0  0  0
    6.6696   -0.6026    1.5058 C   0  0  0  0  0  0  0  0  0  0  0  0
    5.2778   -0.6069    1.4041 C   0  0  0  0  0  0  0  0  0  0  0  0
    2.1194   -2.0023   -1.1150 H   0  0  0  0  0  0  0  0  0  0  0  0
    2.2896   -2.0776    0.6365 H   0  0  0  0  0  0  0  0  0  0  0  0
    3.7112   -1.8478   -0.4072 H   0  0  0  0  0  0  0  0  0  0  0  0
    2.9990    0.3853   -1.0439 H   0  0  0  0  0  0  0  0  0  0  0  0
    0.4775    0.1115    0.4897 H   0  0  0  0  0  0  0  0  0  0  0  0
   -0.9950    1.5696   -3.4156 H   0  0  0  0  0  0  0  0  0  0  0  0
   -3.4478    1.6254   -3.7121 H   0  0  0  0  0  0  0  0  0  0  0  0
   -4.9337    0.3481   -2.1750 H   0  0  0  0  0  0  0  0  0  0  0  0
   -3.1343   -2.0498    1.6973 H   0  0  0  0  0  0  0  0  0  0  0  0
   -4.7281   -0.6260    0.4118 H   0  0  0  0  0  0  0  0  0  0  0  0
    2.7191    1.6613    1.0850 H   0  0  0  0  0  0  0  0  0  0  0  0
    2.9226   -0.7571    2.7321 H   0  0  0  0  0  0  0  0  0  0  0  0
   -0.8166    1.0995    4.4889 H   0  0  0  0  0  0  0  0  0  0  0  0
   -1.5693   -0.0304    6.5536 H   0  0  0  0  0  0  0  0  0  0  0  0
    1.7886   -2.7358    6.2828 H   0  0  0  0  0  0  0  0  0  0  0  0
    4.7466    2.7488    1.2038 H   0  0  0  0  0  0  0  0  0  0  0  0
    7.2005    2.7468    1.4290 H   0  0  0  0  0  0  0  0  0  0  0  0
    8.4453    0.6070    1.5884 H   0  0  0  0  0  0  0  0  0  0  0  0
    7.2086   -1.5425    1.5931 H   0  0  0  0  0  0  0  0  0  0  0  0
    4.7693   -1.5655    1.4569 H   0  0  0  0  0  0  0  0  0  0  0  0
  1  2  1  0  0  0  0
  1 35  1  0  0  0  0
  1 36  1  0  0  0  0
  1 37  1  0  0  0  0
  2  3  1  0  0  0  0
  2 16  1  0  0  0  0
  2 38  1  0  0  0  0
  3  4  1  0  0  0  0
  3 39  1  0  0  0  0
  4  5  2  0  0  0  0
  4  6  1  0  0  0  0
  6  7  2  0  0  0  0
  6 11  1  0  0  0  0
  7  8  1  0  0  0  0
  7 40  1  0  0  0  0
  8  9  2  0  0  0  0
  8 41  1  0  0  0  0
  9 10  1  0  0  0  0
  9 42  1  0  0  0  0
 10 11  2  0  0  0  0
 10 15  1  0  0  0  0
 11 12  1  0  0  0  0
 12 13  2  0  0  0  0
 12 14  1  0  0  0  0
 14 15  1  0  0  0  0
 14 43  1  0  0  0  0
 15 44  1  0  0  0  0
 16 17  1  0  0  0  0
 16 29  1  0  0  0  0
 16 45  1  0  0  0  0
 17 18  1  0  0  0  0
 17 46  1  0  0  0  0
 18 19  2  0  0  0  0
 18 20  1  0  0  0  0
 20 21  2  0  0  0  0
 20 27  1  0  0  0  0
 21 22  1  0  0  0  0
 21 47  1  0  0  0  0
 22 23  2  0  0  0  0
 22 48  1  0  0  0  0
 23 24  1  0  0  0  0
 23 26  1  0  0  0  0
 24 25  3  0  0  0  0
 26 27  2  0  0  0  0
 26 49  1  0  0  0  0
 27 28  1  0  0  0  0
 29 30  2  0  0  0  0
 29 34  1  0  0  0  0
 30 31  1  0  0  0  0
 30 50  1  0  0  0  0
 31 32  2  0  0  0  0
 31 51  1  0  0  0  0
 32 33  1  0  0  0  0
 32 52  1  0  0  0  0
 33 34  2  0  0  0  0
 33 53  1  0  0  0  0
 34 54  1  0  0  0  0
M  END
$$$$
