
 OpenBabel01122422393D

 47 50  0  0  0  0  0  0  0  0999 V2000
    1.0049   -0.2802    0.3185 O   0  0  0  0  0  0  0  0  0  0  0  0
    2.1898   -0.0490    0.0973 C   0  0  0  0  0  0  0  0  0  0  0  0
    2.8740    1.0700    0.5173 N   0  0  0  0  0  0  0  0  0  0  0  0
    2.2349    2.0772    1.2512 C   0  0  0  0  0  0  0  0  0  0  0  0
    1.4155    1.7782    2.3323 C   0  0  0  0  0  0  0  0  0  0  0  0
    0.7528    2.8177    2.9726 C   0  0  0  0  0  0  0  0  0  0  0  0
    0.8974    4.1115    2.4866 C   0  0  0  0  0  0  0  0  0  0  0  0
    1.7565    4.3342    1.4114 C   0  0  0  0  0  0  0  0  0  0  0  0
    1.8975    5.7260    0.8283 C   0  0  0  0  0  0  0  0  0  0  0  0
    0.8911    6.0743   -0.2484 C   0  0  0  0  0  0  0  0  0  0  0  0
    0.0069    7.1497   -0.0854 C   0  0  0  0  0  0  0  0  0  0  0  0
   -0.8862    7.5016   -1.1027 C   0  0  0  0  0  0  0  0  0  0  0  0
   -0.9077    6.7854   -2.2972 C   0  0  0  0  0  0  0  0  0  0  0  0
   -0.0350    5.7133   -2.4723 C   0  0  0  0  0  0  0  0  0  0  0  0
    0.8586    5.3582   -1.4601 C   0  0  0  0  0  0  0  0  0  0  0  0
    2.4700    3.3337    0.8256 N   0  0  0  0  0  0  0  0  0  0  0  0
    2.9719   -0.9749   -0.7493 C   0  0  0  0  0  0  0  0  0  0  0  0
    2.3610   -1.6074   -1.7522 C   0  0  0  0  0  0  0  0  0  0  0  0
    3.0633   -2.6169   -2.5738 C   0  0  0  0  0  0  0  0  0  0  0  0
    2.4058   -3.1426   -3.4706 O   0  0  0  0  0  0  0  0  0  0  0  0
    4.3873   -2.8936   -2.2083 N   0  0  0  0  0  0  0  0  0  0  0  0
    5.2067   -3.8611   -2.8845 C   0  0  0  0  0  0  0  0  0  0  0  0
    4.9343   -4.2939   -4.1909 C   0  0  0  0  0  0  0  0  0  0  0  0
    5.7511   -5.2331   -4.8320 C   0  0  0  0  0  0  0  0  0  0  0  0
    6.8507   -5.7719   -4.1727 C   0  0  0  0  0  0  0  0  0  0  0  0
    7.1411   -5.3627   -2.8757 C   0  0  0  0  0  0  0  0  0  0  0  0
    6.3344   -4.4086   -2.2441 C   0  0  0  0  0  0  0  0  0  0  0  0
    5.0264   -2.2552   -1.1531 N   0  0  0  0  0  0  0  0  0  0  0  0
    4.3609   -1.3609   -0.5006 C   0  0  0  0  0  0  0  0  0  0  0  0
    3.6241    1.4232   -0.0617 H   0  0  0  0  0  0  0  0  0  0  0  0
    1.2906    0.7583    2.6813 H   0  0  0  0  0  0  0  0  0  0  0  0
    0.1087    2.6144    3.8233 H   0  0  0  0  0  0  0  0  0  0  0  0
    0.3431    4.9280    2.9385 H   0  0  0  0  0  0  0  0  0  0  0  0
    2.9041    5.8376    0.4079 H   0  0  0  0  0  0  0  0  0  0  0  0
    1.8374    6.4543    1.6461 H   0  0  0  0  0  0  0  0  0  0  0  0
    0.0131    7.7326    0.8316 H   0  0  0  0  0  0  0  0  0  0  0  0
   -1.5631    8.3432   -0.9633 H   0  0  0  0  0  0  0  0  0  0  0  0
   -1.5989    7.0634   -3.0878 H   0  0  0  0  0  0  0  0  0  0  0  0
   -0.0481    5.1530   -3.4042 H   0  0  0  0  0  0  0  0  0  0  0  0
    1.5326    4.5269   -1.6147 H   0  0  0  0  0  0  0  0  0  0  0  0
    1.3194   -1.4379   -2.0041 H   0  0  0  0  0  0  0  0  0  0  0  0
    4.1041   -3.8890   -4.7616 H   0  0  0  0  0  0  0  0  0  0  0  0
    5.5233   -5.5373   -5.8508 H   0  0  0  0  0  0  0  0  0  0  0  0
    7.4789   -6.5064   -4.6695 H   0  0  0  0  0  0  0  0  0  0  0  0
    7.9927   -5.7859   -2.3497 H   0  0  0  0  0  0  0  0  0  0  0  0
    6.5824   -4.1219   -1.2250 H   0  0  0  0  0  0  0  0  0  0  0  0
    4.8621   -0.8477    0.3359 H   0  0  0  0  0  0  0  0  0  0  0  0
  1  2  2  0  0  0  0
  2  3  1  0  0  0  0
  2 17  1  0  0  0  0
  3  4  1  0  0  0  0
  3 30  1  0  0  0  0
  4  5  2  0  0  0  0
  4 16  1  0  0  0  0
  5  6  1  0  0  0  0
  5 31  1  0  0  0  0
  6  7  2  0  0  0  0
  6 32  1  0  0  0  0
  7  8  1  0  0  0  0
  7 33  1  0  0  0  0
  8  9  1  0  0  0  0
  8 16  2  0  0  0  0
  9 10  1  0  0  0  0
  9 34  1  0  0  0  0
  9 35  1  0  0  0  0
 10 11  2  0  0  0  0
 10 15  1  0  0  0  0
 11 12  1  0  0  0  0
 11 36  1  0  0  0  0
 12 13  2  0  0  0  0
 12 37  1  0  0  0  0
 13 14  1  0  0  0  0
 13 38  1  0  0  0  0
 14 15  2  0  0  0  0
 14 39  1  0  0  0  0
 15 40  1  0  0  0  0
 17 18  2  0  0  0  0
 17 29  1  0  0  0  0
 18 19  1  0  0  0  0
 18 41  1  0  0  0  0
 19 20  2  0  0  0  0
 19 21  1  0  0  0  0
 21 22  1  0  0  0  0
 21 28  1  0  0  0  0
 22 23  2  0  0  0  0
 22 27  1  0  0  0  0
 23 24  1  0  0  0  0
 23 42  1  0  0  0  0
 24 25  2  0  0  0  0
 24 43  1  0  0  0  0
 25 26  1  0  0  0  0
 25 44  1  0  0  0  0
 26 27  2  0  0  0  0
 26 45  1  0  0  0  0
 27 46  1  0  0  0  0
 28 29  2  0  0  0  0
 29 47  1  0  0  0  0
M  END
$$$$
