
 OpenBabel01122422393D

 41 44  0  0  0  0  0  0  0  0999 V2000
    1.3485    0.6268   -0.9495 O   0  0  0  0  0  0  0  0  0  0  0  0
    2.3648    0.2251   -0.3961 C   0  0  0  0  0  0  0  0  0  0  0  0
    2.8387   -1.0767   -0.3936 N   0  0  0  0  0  0  0  0  0  0  0  0
    2.1732   -2.1756   -0.9892 C   0  0  0  0  0  0  0  0  0  0  0  0
    1.0816   -2.0463   -1.8474 C   0  0  0  0  0  0  0  0  0  0  0  0
    0.4360   -3.1767   -2.3361 C   0  0  0  0  0  0  0  0  0  0  0  0
    0.9232   -4.4153   -1.9672 C   0  0  0  0  0  0  0  0  0  0  0  0
    0.2479   -5.5122   -2.4799 O   0  0  0  0  0  0  0  0  0  0  0  0
    0.9864   -6.6401   -2.7454 C   0  0  0  0  0  0  0  0  0  0  0  0
    2.2693   -6.6280   -3.2957 C   0  0  0  0  0  0  0  0  0  0  0  0
    2.8746   -5.4772   -3.6286 F   0  0  0  0  0  0  0  0  0  0  0  0
    2.9259   -7.8262   -3.5418 C   0  0  0  0  0  0  0  0  0  0  0  0
    4.1706   -7.8182   -4.0392 F   0  0  0  0  0  0  0  0  0  0  0  0
    2.3019   -9.0451   -3.2900 C   0  0  0  0  0  0  0  0  0  0  0  0
    1.0020   -9.0651   -2.7847 C   0  0  0  0  0  0  0  0  0  0  0  0
    0.3443   -7.8629   -2.5125 C   0  0  0  0  0  0  0  0  0  0  0  0
    1.9755   -4.5965   -1.1360 N   0  0  0  0  0  0  0  0  0  0  0  0
    2.5908   -3.4731   -0.6949 C   0  0  0  0  0  0  0  0  0  0  0  0
    3.1581    1.2277    0.3496 C   0  0  0  0  0  0  0  0  0  0  0  0
    4.5562    1.2313    0.2085 C   0  0  0  0  0  0  0  0  0  0  0  0
    5.3159    2.2525    0.7812 C   0  0  0  0  0  0  0  0  0  0  0  0
    4.6878    3.2740    1.4915 C   0  0  0  0  0  0  0  0  0  0  0  0
    3.2960    3.2671    1.6426 C   0  0  0  0  0  0  0  0  0  0  0  0
    2.5295    2.2472    1.0829 C   0  0  0  0  0  0  0  0  0  0  0  0
    1.0776    2.3099    1.3319 C   0  0  0  0  0  0  0  0  0  0  0  0
    0.4860    3.2540    2.0001 N   0  0  0  0  0  0  0  0  0  0  0  0
    1.2606    4.2545    2.4977 N   0  0  0  0  0  0  0  0  0  0  0  0
    2.6267    4.3462    2.3890 C   0  0  0  0  0  0  0  0  0  0  0  0
    3.2680    5.2656    2.8828 O   0  0  0  0  0  0  0  0  0  0  0  0
    3.6512   -1.2952    0.1708 H   0  0  0  0  0  0  0  0  0  0  0  0
    0.7077   -1.0815   -2.1707 H   0  0  0  0  0  0  0  0  0  0  0  0
   -0.4193   -3.0853   -2.9958 H   0  0  0  0  0  0  0  0  0  0  0  0
    2.8302   -9.9687   -3.5025 H   0  0  0  0  0  0  0  0  0  0  0  0
    0.4996  -10.0130   -2.6057 H   0  0  0  0  0  0  0  0  0  0  0  0
   -0.6699   -7.8762   -2.1183 H   0  0  0  0  0  0  0  0  0  0  0  0
    3.4507   -3.6667   -0.0603 H   0  0  0  0  0  0  0  0  0  0  0  0
    5.0632    0.4767   -0.3891 H   0  0  0  0  0  0  0  0  0  0  0  0
    6.3964    2.2703    0.6515 H   0  0  0  0  0  0  0  0  0  0  0  0
    5.2772    4.0852    1.9137 H   0  0  0  0  0  0  0  0  0  0  0  0
    0.4264    1.5068    0.9569 H   0  0  0  0  0  0  0  0  0  0  0  0
    0.7792    4.9876    3.0128 H   0  0  0  0  0  0  0  0  0  0  0  0
  1  2  2  0  0  0  0
  2  3  1  0  0  0  0
  2 19  1  0  0  0  0
  3  4  1  0  0  0  0
  3 30  1  0  0  0  0
  4  5  2  0  0  0  0
  4 18  1  0  0  0  0
  5  6  1  0  0  0  0
  5 31  1  0  0  0  0
  6  7  2  0  0  0  0
  6 32  1  0  0  0  0
  7  8  1  0  0  0  0
  7 17  1  0  0  0  0
  8  9  1  0  0  0  0
  9 10  2  0  0  0  0
  9 16  1  0  0  0  0
 10 11  1  0  0  0  0
 10 12  1  0  0  0  0
 12 13  1  0  0  0  0
 12 14  2  0  0  0  0
 14 15  1  0  0  0  0
 14 33  1  0  0  0  0
 15 16  2  0  0  0  0
 15 34  1  0  0  0  0
 16 35  1  0  0  0  0
 17 18  2  0  0  0  0
 18 36  1  0  0  0  0
 19 20  2  0  0  0  0
 19 24  1  0  0  0  0
 20 21  1  0  0  0  0
 20 37  1  0  0  0  0
 21 22  2  0  0  0  0
 21 38  1  0  0  0  0
 22 23  1  0  0  0  0
 22 39  1  0  0  0  0
 23 24  2  0  0  0  0
 23 28  1  0  0  0  0
 24 25  1  0  0  0  0
 25 26  2  0  0  0  0
 25 40  1  0  0  0  0
 26 27  1  0  0  0  0
 27 28  1  0  0  0  0
 27 41  1  0  0  0  0
 28 29  2  0  0  0  0
M  END
$$$$
