
 OpenBabel01122422393D

 50 53  0  0  0  0  0  0  0  0999 V2000
    1.0124    0.0964    0.0597 O   0  0  0  0  0  0  0  0  0  0  0  0
    2.2389    0.0695    0.0501 C   0  0  0  0  0  0  0  0  0  0  0  0
    3.0205   -1.1189    0.5763 C   0  0  0  0  0  0  0  0  0  0  0  0
    3.9014   -0.7224    1.7633 C   0  0  0  0  0  0  0  0  0  0  0  0
    4.6477   -1.8657    2.4008 C   0  0  0  0  0  0  0  0  0  0  0  0
    4.4789   -2.2124    3.6892 C   0  0  0  0  0  0  0  0  0  0  0  0
    5.2567   -3.2958    4.2908 C   0  0  0  0  0  0  0  0  0  0  0  0
    5.1101   -3.6393    5.6373 C   0  0  0  0  0  0  0  0  0  0  0  0
    5.8666   -4.6818    6.1786 C   0  0  0  0  0  0  0  0  0  0  0  0
    6.7682   -5.3845    5.3773 C   0  0  0  0  0  0  0  0  0  0  0  0
    6.9239   -5.0430    4.0326 C   0  0  0  0  0  0  0  0  0  0  0  0
    6.1712   -3.9970    3.4973 C   0  0  0  0  0  0  0  0  0  0  0  0
    6.3382   -3.6235    2.1589 N   0  0  0  0  0  0  0  0  0  0  0  0
    5.6695   -2.5831    1.5697 C   0  0  0  0  0  0  0  0  0  0  0  0
    5.9015   -2.2504    0.4133 O   0  0  0  0  0  0  0  0  0  0  0  0
    3.0177    1.0913   -0.4371 N   0  0  0  0  0  0  0  0  0  0  0  0
    2.4561    2.2987   -1.0017 C   0  0  0  0  0  0  0  0  0  0  0  0
    2.9582    2.4971   -2.4066 C   0  0  0  0  0  0  0  0  0  0  0  0
    2.2653    1.9726   -3.5029 C   0  0  0  0  0  0  0  0  0  0  0  0
    2.7838    2.0934   -4.8018 C   0  0  0  0  0  0  0  0  0  0  0  0
    4.0200    2.7238   -5.0431 C   0  0  0  0  0  0  0  0  0  0  0  0
    4.6036    2.7844   -6.3982 C   0  0  0  0  0  0  0  0  0  0  0  0
    5.9838    2.7708   -6.6219 C   0  0  0  0  0  0  0  0  0  0  0  0
    6.4778    2.8626   -7.9188 C   0  0  0  0  0  0  0  0  0  0  0  0
    5.5844    2.9440   -8.9769 C   0  0  0  0  0  0  0  0  0  0  0  0
    4.2319    2.9190   -8.6859 C   0  0  0  0  0  0  0  0  0  0  0  0
    3.7253    2.8383   -7.4325 N   0  0  0  0  0  0  0  0  0  0  0  0
    4.6729    3.2730   -3.9288 C   0  0  0  0  0  0  0  0  0  0  0  0
    5.8294    3.9399   -4.0721 F   0  0  0  0  0  0  0  0  0  0  0  0
    4.1664    3.1587   -2.6352 C   0  0  0  0  0  0  0  0  0  0  0  0
    3.6051   -1.5277   -0.2545 H   0  0  0  0  0  0  0  0  0  0  0  0
    2.3032   -1.8919    0.8774 H   0  0  0  0  0  0  0  0  0  0  0  0
    3.2667   -0.2304    2.5130 H   0  0  0  0  0  0  0  0  0  0  0  0
    4.6332    0.0364    1.4606 H   0  0  0  0  0  0  0  0  0  0  0  0
    3.7709   -1.6888    4.3228 H   0  0  0  0  0  0  0  0  0  0  0  0
    4.4142   -3.1008    6.2754 H   0  0  0  0  0  0  0  0  0  0  0  0
    5.7518   -4.9462    7.2272 H   0  0  0  0  0  0  0  0  0  0  0  0
    7.3525   -6.1967    5.8036 H   0  0  0  0  0  0  0  0  0  0  0  0
    7.6328   -5.5931    3.4208 H   0  0  0  0  0  0  0  0  0  0  0  0
    7.0128   -4.1013    1.5779 H   0  0  0  0  0  0  0  0  0  0  0  0
    4.0186    0.9595   -0.5063 H   0  0  0  0  0  0  0  0  0  0  0  0
    2.7808    3.1330   -0.3685 H   0  0  0  0  0  0  0  0  0  0  0  0
    1.3619    2.2838   -0.9776 H   0  0  0  0  0  0  0  0  0  0  0  0
    1.3182    1.4540   -3.3545 H   0  0  0  0  0  0  0  0  0  0  0  0
    2.2216    1.6691   -5.6330 H   0  0  0  0  0  0  0  0  0  0  0  0
    6.6842    2.6884   -5.7966 H   0  0  0  0  0  0  0  0  0  0  0  0
    7.5493    2.8726   -8.0948 H   0  0  0  0  0  0  0  0  0  0  0  0
    5.9349    3.0240   -9.9986 H   0  0  0  0  0  0  0  0  0  0  0  0
    3.4926    2.9686   -9.4805 H   0  0  0  0  0  0  0  0  0  0  0  0
    4.7356    3.5867   -1.8169 H   0  0  0  0  0  0  0  0  0  0  0  0
  1  2  2  0  0  0  0
  2  3  1  0  0  0  0
  2 16  1  0  0  0  0
  3  4  1  0  0  0  0
  3 31  1  0  0  0  0
  3 32  1  0  0  0  0
  4  5  1  0  0  0  0
  4 33  1  0  0  0  0
  4 34  1  0  0  0  0
  5  6  2  0  0  0  0
  5 14  1  0  0  0  0
  6  7  1  0  0  0  0
  6 35  1  0  0  0  0
  7  8  2  0  0  0  0
  7 12  1  0  0  0  0
  8  9  1  0  0  0  0
  8 36  1  0  0  0  0
  9 10  2  0  0  0  0
  9 37  1  0  0  0  0
 10 11  1  0  0  0  0
 10 38  1  0  0  0  0
 11 12  2  0  0  0  0
 11 39  1  0  0  0  0
 12 13  1  0  0  0  0
 13 14  1  0  0  0  0
 13 40  1  0  0  0  0
 14 15  2  0  0  0  0
 16 17  1  0  0  0  0
 16 41  1  0  0  0  0
 17 18  1  0  0  0  0
 17 42  1  0  0  0  0
 17 43  1  0  0  0  0
 18 19  2  0  0  0  0
 18 30  1  0  0  0  0
 19 20  1  0  0  0  0
 19 44  1  0  0  0  0
 20 21  2  0  0  0  0
 20 45  1  0  0  0  0
 21 22  1  0  0  0  0
 21 28  1  0  0  0  0
 22 23  2  0  0  0  0
 22 27  1  0  0  0  0
 23 24  1  0  0  0  0
 23 46  1  0  0  0  0
 24 25  2  0  0  0  0
 24 47  1  0  0  0  0
 25 26  1  0  0  0  0
 25 48  1  0  0  0  0
 26 27  2  0  0  0  0
 26 49  1  0  0  0  0
 28 29  1  0  0  0  0
 28 30  2  0  0  0  0
 30 50  1  0  0  0  0
M  END
$$$$
