
 OpenBabel01122422393D

 50 53  0  0  1  0  0  0  0  0999 V2000
    1.9845   -3.2739   -1.1279 C   0  0  0  0  0  0  0  0  0  0  0  0
    2.5201   -1.9504   -1.1339 O   0  0  0  0  0  0  0  0  0  0  0  0
    2.3918   -1.2918    0.0572 C   0  0  0  0  0  0  0  0  0  0  0  0
    1.8428   -1.7628    1.0485 O   0  0  0  0  0  0  0  0  0  0  0  0
    3.0133    0.1216    0.0099 C   0  0  3  0  0  0  0  0  0  0  0  0
    3.5914    0.4738   -1.2849 N   0  0  0  0  0  0  0  0  0  0  0  0
    4.8880    0.1773   -1.6162 C   0  0  0  0  0  0  0  0  0  0  0  0
    5.7019   -0.2891   -0.8335 O   0  0  0  0  0  0  0  0  0  0  0  0
    5.2744    0.5018   -3.0052 C   0  0  0  0  0  0  0  0  0  0  0  0
    6.5882    0.8737   -3.2534 C   0  0  0  0  0  0  0  0  0  0  0  0
    7.0831    1.2312   -4.4580 N   0  0  0  0  0  0  0  0  0  0  0  0
    6.1798    1.1883   -5.4671 C   0  0  0  0  0  0  0  0  0  0  0  0
    4.8435    0.8291   -5.3424 C   0  0  0  0  0  0  0  0  0  0  0  0
    4.3697    0.4576   -4.0732 C   0  0  0  0  0  0  0  0  0  0  0  0
    4.3067    0.9489   -6.6433 C   0  0  0  0  0  0  0  0  0  0  0  0
    2.9179    0.6676   -7.0896 C   0  0  0  0  0  0  0  0  0  0  0  0
    5.2156    1.3760   -7.5259 N   0  0  0  0  0  0  0  0  0  0  0  0
    6.3837    1.4780   -6.8160 N   0  0  0  0  0  0  0  0  0  0  0  0
    7.6010    1.8185   -7.4816 C   0  0  0  0  0  0  0  0  0  0  0  0
    7.5729    2.1882   -8.8356 C   0  0  0  0  0  0  0  0  0  0  0  0
    8.7581    2.5055   -9.5057 C   0  0  0  0  0  0  0  0  0  0  0  0
    9.9796    2.4480   -8.8361 C   0  0  0  0  0  0  0  0  0  0  0  0
   10.0168    2.0817   -7.4954 C   0  0  0  0  0  0  0  0  0  0  0  0
    8.8354    1.7717   -6.8187 C   0  0  0  0  0  0  0  0  0  0  0  0
    2.0014    1.1902    0.3810 C   0  0  0  0  0  0  0  0  0  0  0  0
    2.1937    2.0048    1.5053 C   0  0  0  0  0  0  0  0  0  0  0  0
    1.3079    3.0518    1.7693 C   0  0  0  0  0  0  0  0  0  0  0  0
    0.2336    3.2819    0.9145 C   0  0  0  0  0  0  0  0  0  0  0  0
   -0.5888    4.3115    1.1528 F   0  0  0  0  0  0  0  0  0  0  0  0
    0.0106    2.4742   -0.1899 C   0  0  0  0  0  0  0  0  0  0  0  0
    0.8921    1.4329   -0.4429 C   0  0  0  0  0  0  0  0  0  0  0  0
    0.7084    0.6846   -1.5410 F   0  0  0  0  0  0  0  0  0  0  0  0
    2.1954   -3.7301   -2.0990 H   0  0  0  0  0  0  0  0  0  0  0  0
    0.8997   -3.2437   -0.9870 H   0  0  0  0  0  0  0  0  0  0  0  0
    2.4608   -3.8808   -0.3515 H   0  0  0  0  0  0  0  0  0  0  0  0
    3.8297    0.1055    0.7431 H   0  0  0  0  0  0  0  0  0  0  0  0
    2.9554    0.8297   -1.9792 H   0  0  0  0  0  0  0  0  0  0  0  0
    7.3138    0.9108   -2.4425 H   0  0  0  0  0  0  0  0  0  0  0  0
    3.3422    0.1369   -3.9461 H   0  0  0  0  0  0  0  0  0  0  0  0
    2.2748    0.3927   -6.2472 H   0  0  0  0  0  0  0  0  0  0  0  0
    2.9073   -0.1630   -7.8025 H   0  0  0  0  0  0  0  0  0  0  0  0
    2.4790    1.5465   -7.5720 H   0  0  0  0  0  0  0  0  0  0  0  0
    6.6329    2.2402   -9.3843 H   0  0  0  0  0  0  0  0  0  0  0  0
    8.7279    2.7947  -10.5529 H   0  0  0  0  0  0  0  0  0  0  0  0
   10.9010    2.6867   -9.3588 H   0  0  0  0  0  0  0  0  0  0  0  0
   10.9669    2.0290   -6.9682 H   0  0  0  0  0  0  0  0  0  0  0  0
    8.9263    1.4780   -5.7786 H   0  0  0  0  0  0  0  0  0  0  0  0
    3.0416    1.8442    2.1698 H   0  0  0  0  0  0  0  0  0  0  0  0
    1.4572    3.6999    2.6280 H   0  0  0  0  0  0  0  0  0  0  0  0
   -0.8239    2.6659   -0.8539 H   0  0  0  0  0  0  0  0  0  0  0  0
  1  2  1  0  0  0  0
  1 33  1  0  0  0  0
  1 34  1  0  0  0  0
  1 35  1  0  0  0  0
  2  3  1  0  0  0  0
  3  4  2  0  0  0  0
  3  5  1  0  0  0  0
  5  6  1  0  0  0  0
  5 25  1  0  0  0  0
  5 36  1  0  0  0  0
  6  7  1  0  0  0  0
  6 37  1  0  0  0  0
  7  8  2  0  0  0  0
  7  9  1  0  0  0  0
  9 10  2  0  0  0  0
  9 14  1  0  0  0  0
 10 11  1  0  0  0  0
 10 38  1  0  0  0  0
 11 12  2  0  0  0  0
 12 13  1  0  0  0  0
 12 18  1  0  0  0  0
 13 14  2  0  0  0  0
 13 15  1  0  0  0  0
 14 39  1  0  0  0  0
 15 16  1  0  0  0  0
 15 17  2  0  0  0  0
 16 40  1  0  0  0  0
 16 41  1  0  0  0  0
 16 42  1  0  0  0  0
 17 18  1  0  0  0  0
 18 19  1  0  0  0  0
 19 20  2  0  0  0  0
 19 24  1  0  0  0  0
 20 21  1  0  0  0  0
 20 43  1  0  0  0  0
 21 22  2  0  0  0  0
 21 44  1  0  0  0  0
 22 23  1  0  0  0  0
 22 45  1  0  0  0  0
 23 24  2  0  0  0  0
 23 46  1  0  0  0  0
 24 47  1  0  0  0  0
 25 26  2  0  0  0  0
 25 31  1  0  0  0  0
 26 27  1  0  0  0  0
 26 48  1  0  0  0  0
 27 28  2  0  0  0  0
 27 49  1  0  0  0  0
 28 29  1  0  0  0  0
 28 30  1  0  0  0  0
 30 31  2  0  0  0  0
 30 50  1  0  0  0  0
 31 32  1  0  0  0  0
M  END
$$$$
