
 OpenBabel01122422393D

 46 49  0  0  0  0  0  0  0  0999 V2000
    1.9523   -5.2187   -0.7598 O   0  0  0  0  0  0  0  0  0  0  0  0
    3.0054   -4.7992   -0.3089 C   0  0  0  0  0  0  0  0  0  0  0  0
    4.2365   -5.6237   -0.3270 C   0  0  0  0  0  0  0  0  0  0  0  0
    5.2082   -4.7865    0.0410 C   0  0  0  0  0  0  0  0  0  0  0  0
    4.7502   -3.5450    0.4068 N   0  0  0  0  0  0  0  0  0  0  0  0
    5.5041   -2.3422    0.3791 C   0  0  0  0  0  0  0  0  0  0  0  0
    6.6185   -2.1902   -0.4576 C   0  0  0  0  0  0  0  0  0  0  0  0
    7.3308   -1.0000   -0.4321 C   0  0  0  0  0  0  0  0  0  0  0  0
    7.0147    0.0457    0.3567 N   0  0  0  0  0  0  0  0  0  0  0  0
    5.9630   -0.1200    1.1798 C   0  0  0  0  0  0  0  0  0  0  0  0
    5.2105   -1.2823    1.2428 C   0  0  0  0  0  0  0  0  0  0  0  0
    3.3316   -3.5530    0.2351 N   0  0  0  0  0  0  0  0  0  0  0  0
    2.5556   -2.3417    0.0039 C   0  0  0  0  0  0  0  0  0  0  0  0
    1.0546   -2.4968   -0.0638 C   0  0  0  0  0  0  0  0  0  0  0  0
    0.3462   -1.9923   -1.1633 C   0  0  0  0  0  0  0  0  0  0  0  0
   -1.0426   -2.1101   -1.2333 C   0  0  0  0  0  0  0  0  0  0  0  0
   -1.6120   -1.6181   -2.3745 O   0  0  0  0  0  0  0  0  0  0  0  0
   -2.9036   -2.1464   -2.6853 C   0  0  0  0  0  0  0  0  0  0  0  0
   -3.1668   -1.9391   -4.1502 C   0  0  0  0  0  0  0  0  0  0  0  0
   -2.2767   -2.4418   -5.1112 C   0  0  0  0  0  0  0  0  0  0  0  0
   -2.5494   -2.2835   -6.4682 C   0  0  0  0  0  0  0  0  0  0  0  0
   -3.7094   -1.6254   -6.8645 C   0  0  0  0  0  0  0  0  0  0  0  0
   -3.9714   -1.4786   -8.1686 F   0  0  0  0  0  0  0  0  0  0  0  0
   -4.6051   -1.1243   -5.9280 C   0  0  0  0  0  0  0  0  0  0  0  0
   -4.3276   -1.2888   -4.5790 C   0  0  0  0  0  0  0  0  0  0  0  0
   -5.2051   -0.8207   -3.6781 F   0  0  0  0  0  0  0  0  0  0  0  0
   -1.7389   -2.6947   -0.1744 C   0  0  0  0  0  0  0  0  0  0  0  0
   -1.0480   -3.1971    0.9247 C   0  0  0  0  0  0  0  0  0  0  0  0
    0.3414   -3.0975    0.9841 C   0  0  0  0  0  0  0  0  0  0  0  0
    4.2832   -6.6433   -0.6550 H   0  0  0  0  0  0  0  0  0  0  0  0
    6.2645   -5.0120    0.0844 H   0  0  0  0  0  0  0  0  0  0  0  0
    6.9342   -2.9754   -1.1351 H   0  0  0  0  0  0  0  0  0  0  0  0
    8.2000   -0.8532   -1.0664 H   0  0  0  0  0  0  0  0  0  0  0  0
    5.7340    0.7278    1.8196 H   0  0  0  0  0  0  0  0  0  0  0  0
    4.4216   -1.3588    1.9814 H   0  0  0  0  0  0  0  0  0  0  0  0
    2.9352   -1.8621   -0.9055 H   0  0  0  0  0  0  0  0  0  0  0  0
    2.7169   -1.6623    0.8429 H   0  0  0  0  0  0  0  0  0  0  0  0
    0.8748   -1.5161   -1.9872 H   0  0  0  0  0  0  0  0  0  0  0  0
   -3.6544   -1.6317   -2.0730 H   0  0  0  0  0  0  0  0  0  0  0  0
   -2.9539   -3.2282   -2.4947 H   0  0  0  0  0  0  0  0  0  0  0  0
   -1.3701   -2.9582   -4.8025 H   0  0  0  0  0  0  0  0  0  0  0  0
   -1.8669   -2.6700   -7.2216 H   0  0  0  0  0  0  0  0  0  0  0  0
   -5.5082   -0.6184   -6.2467 H   0  0  0  0  0  0  0  0  0  0  0  0
   -2.8222   -2.7723   -0.1787 H   0  0  0  0  0  0  0  0  0  0  0  0
   -1.5930   -3.6760    1.7336 H   0  0  0  0  0  0  0  0  0  0  0  0
    0.8668   -3.5086    1.8415 H   0  0  0  0  0  0  0  0  0  0  0  0
  1  2  2  0  0  0  0
  2  3  1  0  0  0  0
  2 12  1  0  0  0  0
  3  4  2  0  0  0  0
  3 30  1  0  0  0  0
  4  5  1  0  0  0  0
  4 31  1  0  0  0  0
  5  6  1  0  0  0  0
  5 12  1  0  0  0  0
  6  7  2  0  0  0  0
  6 11  1  0  0  0  0
  7  8  1  0  0  0  0
  7 32  1  0  0  0  0
  8  9  2  0  0  0  0
  8 33  1  0  0  0  0
  9 10  1  0  0  0  0
 10 11  2  0  0  0  0
 10 34  1  0  0  0  0
 11 35  1  0  0  0  0
 12 13  1  0  0  0  0
 13 14  1  0  0  0  0
 13 36  1  0  0  0  0
 13 37  1  0  0  0  0
 14 15  2  0  0  0  0
 14 29  1  0  0  0  0
 15 16  1  0  0  0  0
 15 38  1  0  0  0  0
 16 17  1  0  0  0  0
 16 27  2  0  0  0  0
 17 18  1  0  0  0  0
 18 19  1  0  0  0  0
 18 39  1  0  0  0  0
 18 40  1  0  0  0  0
 19 20  2  0  0  0  0
 19 25  1  0  0  0  0
 20 21  1  0  0  0  0
 20 41  1  0  0  0  0
 21 22  2  0  0  0  0
 21 42  1  0  0  0  0
 22 23  1  0  0  0  0
 22 24  1  0  0  0  0
 24 25  2  0  0  0  0
 24 43  1  0  0  0  0
 25 26  1  0  0  0  0
 27 28  1  0  0  0  0
 27 44  1  0  0  0  0
 28 29  2  0  0  0  0
 28 45  1  0  0  0  0
 29 46  1  0  0  0  0
M  END
$$$$
