
 OpenBabel01122422393D

 41 44  0  0  0  0  0  0  0  0999 V2000
    1.1476    0.6510   -0.7168 O   0  0  0  0  0  0  0  0  0  0  0  0
    2.2830    0.2856   -0.4380 C   0  0  0  0  0  0  0  0  0  0  0  0
    2.8285   -0.9728   -0.6933 N   0  0  0  0  0  0  0  0  0  0  0  0
    2.1732   -1.9974   -1.4389 C   0  0  0  0  0  0  0  0  0  0  0  0
    1.0821   -1.6957   -2.2710 C   0  0  0  0  0  0  0  0  0  0  0  0
    0.3894   -2.6879   -2.9643 C   0  0  0  0  0  0  0  0  0  0  0  0
    0.7527   -4.0149   -2.8110 C   0  0  0  0  0  0  0  0  0  0  0  0
    1.8335   -4.3409   -1.9953 C   0  0  0  0  0  0  0  0  0  0  0  0
    2.6031   -3.3404   -1.3678 C   0  0  0  0  0  0  0  0  0  0  0  0
    3.7514   -3.6464   -0.6449 O   0  0  0  0  0  0  0  0  0  0  0  0
    4.4419   -4.8055   -0.9664 C   0  0  0  0  0  0  0  0  0  0  0  0
    4.6990   -5.2004   -2.2857 C   0  0  0  0  0  0  0  0  0  0  0  0
    5.2917   -6.4361   -2.5360 C   0  0  0  0  0  0  0  0  0  0  0  0
    5.4397   -6.8485   -3.8018 F   0  0  0  0  0  0  0  0  0  0  0  0
    5.7051   -7.2579   -1.4990 C   0  0  0  0  0  0  0  0  0  0  0  0
    5.5239   -6.8199   -0.1939 C   0  0  0  0  0  0  0  0  0  0  0  0
    5.9443   -7.5926    0.8167 F   0  0  0  0  0  0  0  0  0  0  0  0
    4.8965   -5.6040    0.0856 C   0  0  0  0  0  0  0  0  0  0  0  0
    3.1248    1.2685    0.2695 C   0  0  0  0  0  0  0  0  0  0  0  0
    2.4911    2.2156    1.0754 C   0  0  0  0  0  0  0  0  0  0  0  0
    3.1302    3.2279    1.7153 N   0  0  0  0  0  0  0  0  0  0  0  0
    4.4591    3.3308    1.5183 C   0  0  0  0  0  0  0  0  0  0  0  0
    5.0652    4.4112    2.1711 N   0  0  0  0  0  0  0  0  0  0  0  0
    6.3263    4.5810    1.9832 C   0  0  0  0  0  0  0  0  0  0  0  0
    7.0983    3.7712    1.2019 N   0  0  0  0  0  0  0  0  0  0  0  0
    6.5957    2.6785    0.5472 C   0  0  0  0  0  0  0  0  0  0  0  0
    7.2922    1.9403   -0.1388 O   0  0  0  0  0  0  0  0  0  0  0  0
    5.1599    2.4389    0.7137 C   0  0  0  0  0  0  0  0  0  0  0  0
    4.4973    1.3841    0.0776 C   0  0  0  0  0  0  0  0  0  0  0  0
    3.6625   -1.2604   -0.1933 H   0  0  0  0  0  0  0  0  0  0  0  0
    0.7459   -0.6746   -2.4225 H   0  0  0  0  0  0  0  0  0  0  0  0
   -0.4428   -2.4135   -3.6070 H   0  0  0  0  0  0  0  0  0  0  0  0
    0.2047   -4.7952   -3.3318 H   0  0  0  0  0  0  0  0  0  0  0  0
    2.0725   -5.3943   -1.8798 H   0  0  0  0  0  0  0  0  0  0  0  0
    4.3949   -4.5887   -3.1295 H   0  0  0  0  0  0  0  0  0  0  0  0
    6.1611   -8.2197   -1.7050 H   0  0  0  0  0  0  0  0  0  0  0  0
    4.7492   -5.3095    1.1195 H   0  0  0  0  0  0  0  0  0  0  0  0
    1.4125    2.1974    1.2263 H   0  0  0  0  0  0  0  0  0  0  0  0
    6.8776    5.4108    2.4532 H   0  0  0  0  0  0  0  0  0  0  0  0
    8.0866    3.9503    1.0910 H   0  0  0  0  0  0  0  0  0  0  0  0
    5.0391    0.7205   -0.5890 H   0  0  0  0  0  0  0  0  0  0  0  0
  1  2  2  0  0  0  0
  2  3  1  0  0  0  0
  2 19  1  0  0  0  0
  3  4  1  0  0  0  0
  3 30  1  0  0  0  0
  4  5  2  0  0  0  0
  4  9  1  0  0  0  0
  5  6  1  0  0  0  0
  5 31  1  0  0  0  0
  6  7  2  0  0  0  0
  6 32  1  0  0  0  0
  7  8  1  0  0  0  0
  7 33  1  0  0  0  0
  8  9  2  0  0  0  0
  8 34  1  0  0  0  0
  9 10  1  0  0  0  0
 10 11  1  0  0  0  0
 11 12  2  0  0  0  0
 11 18  1  0  0  0  0
 12 13  1  0  0  0  0
 12 35  1  0  0  0  0
 13 14  1  0  0  0  0
 13 15  2  0  0  0  0
 15 16  1  0  0  0  0
 15 36  1  0  0  0  0
 16 17  1  0  0  0  0
 16 18  2  0  0  0  0
 18 37  1  0  0  0  0
 19 20  2  0  0  0  0
 19 29  1  0  0  0  0
 20 21  1  0  0  0  0
 20 38  1  0  0  0  0
 21 22  2  0  0  0  0
 22 23  1  0  0  0  0
 22 28  1  0  0  0  0
 23 24  2  0  0  0  0
 24 25  1  0  0  0  0
 24 39  1  0  0  0  0
 25 26  1  0  0  0  0
 25 40  1  0  0  0  0
 26 27  2  0  0  0  0
 26 28  1  0  0  0  0
 28 29  2  0  0  0  0
 29 41  1  0  0  0  0
M  END
$$$$
