
 OpenBabel01122422393D

 47 50  0  0  1  0  0  0  0  0999 V2000
    0.8517   -0.0761   -0.0001 C   0  0  0  0  0  0  0  0  0  0  0  0
    2.3792   -0.0060   -0.0629 C   0  0  3  0  0  0  0  0  0  0  0  0
    2.8681   -0.2720   -1.4034 N   0  0  0  0  0  0  0  0  0  0  0  0
    3.1273   -1.5445   -1.8472 C   0  0  0  0  0  0  0  0  0  0  0  0
    3.0267   -2.5445   -1.1452 O   0  0  0  0  0  0  0  0  0  0  0  0
    3.5380   -1.6024   -3.2998 C   0  0  0  0  0  0  0  0  0  0  0  0
    3.8331   -2.8185   -3.7666 C   0  0  0  0  0  0  0  0  0  0  0  0
    4.1832   -2.9576   -5.1835 C   0  0  0  0  0  0  0  0  0  0  0  0
    4.4538   -4.0759   -5.6189 O   0  0  0  0  0  0  0  0  0  0  0  0
    4.1654   -1.7866   -5.9252 N   0  0  0  0  0  0  0  0  0  0  0  0
    4.4492   -1.8465   -7.2847 C   0  0  0  0  0  0  0  0  0  0  0  0
    4.4491   -0.7529   -8.0577 C   0  0  0  0  0  0  0  0  0  0  0  0
    4.1556    0.5306   -7.4759 C   0  0  0  0  0  0  0  0  0  0  0  0
    3.8788    0.6395   -6.1710 C   0  0  0  0  0  0  0  0  0  0  0  0
    3.8598   -0.5775   -5.3069 C   0  0  0  0  0  0  0  0  0  0  0  0
    3.5582   -0.4476   -4.0493 N   0  0  0  0  0  0  0  0  0  0  0  0
    2.9013    1.3262    0.4339 C   0  0  0  0  0  0  0  0  0  0  0  0
    3.7811    1.3719    1.5228 C   0  0  0  0  0  0  0  0  0  0  0  0
    4.2760    2.5936    1.9979 C   0  0  0  0  0  0  0  0  0  0  0  0
    3.9018    3.8173    1.4137 C   0  0  0  0  0  0  0  0  0  0  0  0
    4.3821    5.1096    1.9567 C   0  0  0  0  0  0  0  0  0  0  0  0
    4.6517    6.2092    1.1219 C   0  0  0  0  0  0  0  0  0  0  0  0
    5.0212    7.4521    1.6455 C   0  0  0  0  0  0  0  0  0  0  0  0
    5.1536    7.6182    3.0198 C   0  0  0  0  0  0  0  0  0  0  0  0
    4.9331    6.5383    3.8678 C   0  0  0  0  0  0  0  0  0  0  0  0
    4.5512    5.3007    3.3414 C   0  0  0  0  0  0  0  0  0  0  0  0
    3.0221    3.7472    0.3197 C   0  0  0  0  0  0  0  0  0  0  0  0
    2.5948    4.8648   -0.2897 F   0  0  0  0  0  0  0  0  0  0  0  0
    2.5325    2.5340   -0.1675 C   0  0  0  0  0  0  0  0  0  0  0  0
    0.4971   -1.0749   -0.2768 H   0  0  0  0  0  0  0  0  0  0  0  0
    0.3794    0.6369   -0.6846 H   0  0  0  0  0  0  0  0  0  0  0  0
    0.4927    0.1415    1.0118 H   0  0  0  0  0  0  0  0  0  0  0  0
    2.7630   -0.7995    0.5929 H   0  0  0  0  0  0  0  0  0  0  0  0
    2.9507    0.4767   -2.0839 H   0  0  0  0  0  0  0  0  0  0  0  0
    3.8123   -3.7203   -3.1687 H   0  0  0  0  0  0  0  0  0  0  0  0
    4.6687   -2.8273   -7.7020 H   0  0  0  0  0  0  0  0  0  0  0  0
    4.6629   -0.8139   -9.1171 H   0  0  0  0  0  0  0  0  0  0  0  0
    4.1667    1.4023   -8.1225 H   0  0  0  0  0  0  0  0  0  0  0  0
    3.6586    1.5883   -5.7014 H   0  0  0  0  0  0  0  0  0  0  0  0
    4.0890    0.4526    2.0193 H   0  0  0  0  0  0  0  0  0  0  0  0
    4.9661    2.5712    2.8393 H   0  0  0  0  0  0  0  0  0  0  0  0
    4.5612    6.1160    0.0413 H   0  0  0  0  0  0  0  0  0  0  0  0
    5.1926    8.2906    0.9756 H   0  0  0  0  0  0  0  0  0  0  0  0
    5.4240    8.5874    3.4288 H   0  0  0  0  0  0  0  0  0  0  0  0
    5.0401    6.6591    4.9427 H   0  0  0  0  0  0  0  0  0  0  0  0
    4.3583    4.4889    4.0395 H   0  0  0  0  0  0  0  0  0  0  0  0
    1.8509    2.5570   -1.0127 H   0  0  0  0  0  0  0  0  0  0  0  0
  1  2  1  0  0  0  0
  1 30  1  0  0  0  0
  1 31  1  0  0  0  0
  1 32  1  0  0  0  0
  2  3  1  0  0  0  0
  2 17  1  0  0  0  0
  2 33  1  0  0  0  0
  3  4  1  0  0  0  0
  3 34  1  0  0  0  0
  4  5  2  0  0  0  0
  4  6  1  0  0  0  0
  6  7  2  0  0  0  0
  6 16  1  0  0  0  0
  7  8  1  0  0  0  0
  7 35  1  0  0  0  0
  8  9  2  0  0  0  0
  8 10  1  0  0  0  0
 10 11  1  0  0  0  0
 10 15  1  0  0  0  0
 11 12  2  0  0  0  0
 11 36  1  0  0  0  0
 12 13  1  0  0  0  0
 12 37  1  0  0  0  0
 13 14  2  0  0  0  0
 13 38  1  0  0  0  0
 14 15  1  0  0  0  0
 14 39  1  0  0  0  0
 15 16  2  0  0  0  0
 17 18  2  0  0  0  0
 17 29  1  0  0  0  0
 18 19  1  0  0  0  0
 18 40  1  0  0  0  0
 19 20  2  0  0  0  0
 19 41  1  0  0  0  0
 20 21  1  0  0  0  0
 20 27  1  0  0  0  0
 21 22  2  0  0  0  0
 21 26  1  0  0  0  0
 22 23  1  0  0  0  0
 22 42  1  0  0  0  0
 23 24  2  0  0  0  0
 23 43  1  0  0  0  0
 24 25  1  0  0  0  0
 24 44  1  0  0  0  0
 25 26  2  0  0  0  0
 25 45  1  0  0  0  0
 26 46  1  0  0  0  0
 27 28  1  0  0  0  0
 27 29  2  0  0  0  0
 29 47  1  0  0  0  0
M  END
$$$$
