
 OpenBabel01122422393D

 52 55  0  0  1  0  0  0  0  0999 V2000
    0.9696   -0.0556    0.0111 C   0  0  0  0  0  0  0  0  0  0  0  0
    2.5018   -0.0580    0.0192 C   0  0  3  0  0  0  0  0  0  0  0  0
    3.0409   -1.3966   -0.1166 N   0  0  0  0  0  0  0  0  0  0  0  0
    3.2556   -2.2057    0.9816 C   0  0  0  0  0  0  0  0  0  0  0  0
    3.0671   -1.8390    2.1382 O   0  0  0  0  0  0  0  0  0  0  0  0
    3.7007   -3.5741    0.6678 C   0  0  0  0  0  0  0  0  0  0  0  0
    3.9253   -4.0010   -0.5846 N   0  0  0  0  0  0  0  0  0  0  0  0
    4.1831   -5.3412   -0.4637 N   0  0  0  0  0  0  0  0  0  0  0  0
    4.1800   -6.1362   -1.6455 C   0  0  0  0  0  0  0  0  0  0  0  0
    4.5673   -5.5535   -2.8618 C   0  0  0  0  0  0  0  0  0  0  0  0
    4.5296   -6.3008   -4.0411 C   0  0  0  0  0  0  0  0  0  0  0  0
    4.0783   -7.6192   -4.0186 C   0  0  0  0  0  0  0  0  0  0  0  0
    3.6762   -8.1975   -2.8162 C   0  0  0  0  0  0  0  0  0  0  0  0
    3.7297   -7.4622   -1.6297 C   0  0  0  0  0  0  0  0  0  0  0  0
    4.2955   -5.7273    0.8665 C   0  0  0  0  0  0  0  0  0  0  0  0
    4.7569   -7.0039    1.3448 C   0  0  0  0  0  0  0  0  0  0  0  0
    4.3152   -7.3660    2.5842 N   0  0  0  0  0  0  0  0  0  0  0  0
    5.4985   -7.7684    0.7320 O   0  0  0  0  0  0  0  0  0  0  0  0
    3.9556   -4.6043    1.6010 C   0  0  0  0  0  0  0  0  0  0  0  0
    3.0609    0.9003   -1.0177 C   0  0  0  0  0  0  0  0  0  0  0  0
    3.8619    1.9677   -0.5939 C   0  0  0  0  0  0  0  0  0  0  0  0
    4.2859    2.9539   -1.4918 C   0  0  0  0  0  0  0  0  0  0  0  0
    3.9441    2.9095   -2.8536 C   0  0  0  0  0  0  0  0  0  0  0  0
    4.3205    4.0107   -3.7716 C   0  0  0  0  0  0  0  0  0  0  0  0
    5.4901    4.7688   -3.6016 C   0  0  0  0  0  0  0  0  0  0  0  0
    5.7772    5.8453   -4.4426 C   0  0  0  0  0  0  0  0  0  0  0  0
    4.8899    6.1377   -5.4609 C   0  0  0  0  0  0  0  0  0  0  0  0
    3.7620    5.4370   -5.6855 N   0  0  0  0  0  0  0  0  0  0  0  0
    3.5075    4.4053   -4.8391 C   0  0  0  0  0  0  0  0  0  0  0  0
    3.1921    1.7990   -3.2802 C   0  0  0  0  0  0  0  0  0  0  0  0
    2.7539    0.8123   -2.3803 C   0  0  0  0  0  0  0  0  0  0  0  0
    0.5719   -0.6828    0.8159 H   0  0  0  0  0  0  0  0  0  0  0  0
    0.5612   -0.4347   -0.9319 H   0  0  0  0  0  0  0  0  0  0  0  0
    0.5838    0.9608    0.1570 H   0  0  0  0  0  0  0  0  0  0  0  0
    2.7996    0.3083    1.0102 H   0  0  0  0  0  0  0  0  0  0  0  0
    3.1562   -1.8290   -1.0276 H   0  0  0  0  0  0  0  0  0  0  0  0
    4.9285   -4.5276   -2.8989 H   0  0  0  0  0  0  0  0  0  0  0  0
    4.8517   -5.8531   -4.9777 H   0  0  0  0  0  0  0  0  0  0  0  0
    4.0362   -8.1964   -4.9386 H   0  0  0  0  0  0  0  0  0  0  0  0
    3.3131   -9.2222   -2.8003 H   0  0  0  0  0  0  0  0  0  0  0  0
    3.3747   -7.9396   -0.7215 H   0  0  0  0  0  0  0  0  0  0  0  0
    3.6412   -6.8337    3.1124 H   0  0  0  0  0  0  0  0  0  0  0  0
    4.5922   -8.2787    2.9255 H   0  0  0  0  0  0  0  0  0  0  0  0
    3.9309   -4.5097    2.6787 H   0  0  0  0  0  0  0  0  0  0  0  0
    4.1351    2.0670    0.4552 H   0  0  0  0  0  0  0  0  0  0  0  0
    4.8593    3.7865   -1.0896 H   0  0  0  0  0  0  0  0  0  0  0  0
    6.1956    4.5340   -2.8085 H   0  0  0  0  0  0  0  0  0  0  0  0
    6.6715    6.4417   -4.3001 H   0  0  0  0  0  0  0  0  0  0  0  0
    5.0665    6.9671   -6.1395 H   0  0  0  0  0  0  0  0  0  0  0  0
    2.5685    3.9000   -5.0498 H   0  0  0  0  0  0  0  0  0  0  0  0
    2.9177    1.6883   -4.3279 H   0  0  0  0  0  0  0  0  0  0  0  0
    2.1426   -0.0046   -2.7583 H   0  0  0  0  0  0  0  0  0  0  0  0
  1  2  1  0  0  0  0
  1 32  1  0  0  0  0
  1 33  1  0  0  0  0
  1 34  1  0  0  0  0
  2  3  1  0  0  0  0
  2 20  1  0  0  0  0
  2 35  1  0  0  0  0
  3  4  1  0  0  0  0
  3 36  1  0  0  0  0
  4  5  2  0  0  0  0
  4  6  1  0  0  0  0
  6  7  2  0  0  0  0
  6 19  1  0  0  0  0
  7  8  1  0  0  0  0
  8  9  1  0  0  0  0
  8 15  1  0  0  0  0
  9 10  2  0  0  0  0
  9 14  1  0  0  0  0
 10 11  1  0  0  0  0
 10 37  1  0  0  0  0
 11 12  2  0  0  0  0
 11 38  1  0  0  0  0
 12 13  1  0  0  0  0
 12 39  1  0  0  0  0
 13 14  2  0  0  0  0
 13 40  1  0  0  0  0
 14 41  1  0  0  0  0
 15 16  1  0  0  0  0
 15 19  2  0  0  0  0
 16 17  1  0  0  0  0
 16 18  2  0  0  0  0
 17 42  1  0  0  0  0
 17 43  1  0  0  0  0
 19 44  1  0  0  0  0
 20 21  2  0  0  0  0
 20 31  1  0  0  0  0
 21 22  1  0  0  0  0
 21 45  1  0  0  0  0
 22 23  2  0  0  0  0
 22 46  1  0  0  0  0
 23 24  1  0  0  0  0
 23 30  1  0  0  0  0
 24 25  2  0  0  0  0
 24 29  1  0  0  0  0
 25 26  1  0  0  0  0
 25 47  1  0  0  0  0
 26 27  2  0  0  0  0
 26 48  1  0  0  0  0
 27 28  1  0  0  0  0
 27 49  1  0  0  0  0
 28 29  2  0  0  0  0
 29 50  1  0  0  0  0
 30 31  2  0  0  0  0
 30 51  1  0  0  0  0
 31 52  1  0  0  0  0
M  END
$$$$
