
 OpenBabel01122422353D

 51 54  0  0  0  0  0  0  0  0999 V2000
    2.5330    0.2078   -1.4372 C   0  0  0  0  0  0  0  0  0  0  0  0
    2.3007   -0.1078   -0.0370 N   0  0  0  0  0  0  0  0  0  0  0  0
    2.9822    0.7506    0.9303 C   0  0  0  0  0  0  0  0  0  0  0  0
    2.1327    1.8438    1.5471 C   0  0  0  0  0  0  0  0  0  0  0  0
    1.4290    1.5168    2.7245 C   0  0  0  0  0  0  0  0  0  0  0  0
    0.7258    2.4780    3.4478 C   0  0  0  0  0  0  0  0  0  0  0  0
    0.7328    3.7968    3.0261 C   0  0  0  0  0  0  0  0  0  0  0  0
    1.4040    4.1403    1.8548 C   0  0  0  0  0  0  0  0  0  0  0  0
    2.0621    3.1701    1.0738 C   0  0  0  0  0  0  0  0  0  0  0  0
    2.6486    3.4821   -0.1371 O   0  0  0  0  0  0  0  0  0  0  0  0
    2.1249    4.6798   -0.7493 C   0  0  0  0  0  0  0  0  0  0  0  0
    2.3794    4.7937   -2.2358 C   0  0  0  0  0  0  0  0  0  0  0  0
    3.1654    3.8776   -2.9371 C   0  0  0  0  0  0  0  0  0  0  0  0
    3.3160    3.9889   -4.3207 C   0  0  0  0  0  0  0  0  0  0  0  0
    2.6961    5.0265   -5.0153 C   0  0  0  0  0  0  0  0  0  0  0  0
    1.9374    5.9676   -4.3258 C   0  0  0  0  0  0  0  0  0  0  0  0
    1.7828    5.8548   -2.9438 C   0  0  0  0  0  0  0  0  0  0  0  0
    1.5607   -1.2140    0.3996 C   0  0  0  0  0  0  0  0  0  0  0  0
    1.5672   -1.5904    1.5752 O   0  0  0  0  0  0  0  0  0  0  0  0
    0.7229   -1.9828   -0.6286 C   0  0  0  0  0  0  0  0  0  0  0  0
    0.3628   -3.2359   -0.3288 C   0  0  0  0  0  0  0  0  0  0  0  0
   -0.4158   -4.0052   -1.3237 C   0  0  0  0  0  0  0  0  0  0  0  0
   -0.7299   -5.1664   -1.0630 O   0  0  0  0  0  0  0  0  0  0  0  0
   -0.7213   -3.3413   -2.5047 N   0  0  0  0  0  0  0  0  0  0  0  0
   -1.4443   -3.9860   -3.5045 C   0  0  0  0  0  0  0  0  0  0  0  0
   -1.7597   -3.3716   -4.6540 C   0  0  0  0  0  0  0  0  0  0  0  0
   -1.3425   -2.0134   -4.8837 C   0  0  0  0  0  0  0  0  0  0  0  0
   -0.6450   -1.3568   -3.9516 C   0  0  0  0  0  0  0  0  0  0  0  0
   -0.3052   -2.0332   -2.6720 C   0  0  0  0  0  0  0  0  0  0  0  0
    0.3655   -1.3607   -1.7963 N   0  0  0  0  0  0  0  0  0  0  0  0
    3.4121    0.8455   -1.5520 H   0  0  0  0  0  0  0  0  0  0  0  0
    1.6644    0.7325   -1.8411 H   0  0  0  0  0  0  0  0  0  0  0  0
    2.7352   -0.7123   -1.9953 H   0  0  0  0  0  0  0  0  0  0  0  0
    3.8838    1.1828    0.4785 H   0  0  0  0  0  0  0  0  0  0  0  0
    3.3672    0.1127    1.7383 H   0  0  0  0  0  0  0  0  0  0  0  0
    1.4470    0.4941    3.0992 H   0  0  0  0  0  0  0  0  0  0  0  0
    0.1964    2.1953    4.3524 H   0  0  0  0  0  0  0  0  0  0  0  0
    0.2136    4.5594    3.5992 H   0  0  0  0  0  0  0  0  0  0  0  0
    1.3972    5.1911    1.5805 H   0  0  0  0  0  0  0  0  0  0  0  0
    2.5775    5.5551   -0.2657 H   0  0  0  0  0  0  0  0  0  0  0  0
    1.0322    4.7024   -0.6350 H   0  0  0  0  0  0  0  0  0  0  0  0
    3.6589    3.0663   -2.4116 H   0  0  0  0  0  0  0  0  0  0  0  0
    3.9155    3.2592   -4.8576 H   0  0  0  0  0  0  0  0  0  0  0  0
    2.8065    5.1010   -6.0937 H   0  0  0  0  0  0  0  0  0  0  0  0
    1.4595    6.7832   -4.8636 H   0  0  0  0  0  0  0  0  0  0  0  0
    1.1802    6.5955   -2.4210 H   0  0  0  0  0  0  0  0  0  0  0  0
    0.6173   -3.7362    0.5951 H   0  0  0  0  0  0  0  0  0  0  0  0
   -1.7460   -5.0126   -3.3126 H   0  0  0  0  0  0  0  0  0  0  0  0
   -2.3279   -3.8765   -5.4292 H   0  0  0  0  0  0  0  0  0  0  0  0
   -1.6007   -1.5349   -5.8228 H   0  0  0  0  0  0  0  0  0  0  0  0
   -0.3022   -0.3375   -4.0799 H   0  0  0  0  0  0  0  0  0  0  0  0
  1  2  1  0  0  0  0
  1 31  1  0  0  0  0
  1 32  1  0  0  0  0
  1 33  1  0  0  0  0
  2  3  1  0  0  0  0
  2 18  1  0  0  0  0
  3  4  1  0  0  0  0
  3 34  1  0  0  0  0
  3 35  1  0  0  0  0
  4  5  2  0  0  0  0
  4  9  1  0  0  0  0
  5  6  1  0  0  0  0
  5 36  1  0  0  0  0
  6  7  2  0  0  0  0
  6 37  1  0  0  0  0
  7  8  1  0  0  0  0
  7 38  1  0  0  0  0
  8  9  2  0  0  0  0
  8 39  1  0  0  0  0
  9 10  1  0  0  0  0
 10 11  1  0  0  0  0
 11 12  1  0  0  0  0
 11 40  1  0  0  0  0
 11 41  1  0  0  0  0
 12 13  2  0  0  0  0
 12 17  1  0  0  0  0
 13 14  1  0  0  0  0
 13 42  1  0  0  0  0
 14 15  2  0  0  0  0
 14 43  1  0  0  0  0
 15 16  1  0  0  0  0
 15 44  1  0  0  0  0
 16 17  2  0  0  0  0
 16 45  1  0  0  0  0
 17 46  1  0  0  0  0
 18 19  2  0  0  0  0
 18 20  1  0  0  0  0
 20 21  2  0  0  0  0
 20 30  1  0  0  0  0
 21 22  1  0  0  0  0
 21 47  1  0  0  0  0
 22 23  2  0  0  0  0
 22 24  1  0  0  0  0
 24 25  1  0  0  0  0
 24 29  1  0  0  0  0
 25 26  2  0  0  0  0
 25 48  1  0  0  0  0
 26 27  1  0  0  0  0
 26 49  1  0  0  0  0
 27 28  2  0  0  0  0
 27 50  1  0  0  0  0
 28 29  1  0  0  0  0
 28 51  1  0  0  0  0
 29 30  2  0  0  0  0
M  END
$$$$
