
 OpenBabel01122422393D

 56 59  0  0  0  0  0  0  0  0999 V2000
    2.7617   -0.2047   -1.2067 O   0  0  0  0  0  0  0  0  0  0  0  0
    2.3291   -0.0621   -0.0699 C   0  0  0  0  0  0  0  0  0  0  0  0
    0.9801   -0.0551    0.1930 N   0  0  0  0  0  0  0  0  0  0  0  0
   -0.0069   -0.1393   -0.8786 C   0  0  0  0  0  0  0  0  0  0  0  0
   -0.7452   -1.4824   -0.9254 C   0  0  0  0  0  0  0  0  0  0  0  0
   -1.5273   -1.7335    0.2685 N   0  0  0  0  0  0  0  0  0  0  0  0
   -2.8206   -1.2407    0.4684 C   0  0  0  0  0  0  0  0  0  0  0  0
   -3.4813   -0.5798   -0.3179 O   0  0  0  0  0  0  0  0  0  0  0  0
   -3.2591   -1.6622    1.8735 C   0  0  0  0  0  0  0  0  0  0  0  0
   -2.0424   -2.3651    2.3942 C   0  0  0  0  0  0  0  0  0  0  0  0
   -1.8218   -2.9310    3.6371 C   0  0  0  0  0  0  0  0  0  0  0  0
   -0.5817   -3.5308    3.8739 C   0  0  0  0  0  0  0  0  0  0  0  0
    0.4066   -3.5596    2.8756 C   0  0  0  0  0  0  0  0  0  0  0  0
    0.1729   -2.9845    1.6249 C   0  0  0  0  0  0  0  0  0  0  0  0
   -1.0565   -2.3897    1.4082 C   0  0  0  0  0  0  0  0  0  0  0  0
    3.0822    0.0924    1.0776 N   0  0  0  0  0  0  0  0  0  0  0  0
    4.4874    0.2394    1.1428 C   0  0  0  0  0  0  0  0  0  0  0  0
    5.2959    0.3846    0.0116 C   0  0  0  0  0  0  0  0  0  0  0  0
    6.6879    0.4924    0.1288 C   0  0  0  0  0  0  0  0  0  0  0  0
    7.5747    0.5972   -1.0660 C   0  0  0  0  0  0  0  0  0  0  0  0
    8.6718    1.1351   -0.9632 O   0  0  0  0  0  0  0  0  0  0  0  0
    7.1137    0.0264   -2.2330 N   0  0  0  0  0  0  0  0  0  0  0  0
    7.8984    0.0126   -3.4522 C   0  0  0  0  0  0  0  0  0  0  0  0
    8.2625   -1.3891   -3.8601 C   0  0  0  0  0  0  0  0  0  0  0  0
    9.0474   -2.2029   -3.0301 C   0  0  0  0  0  0  0  0  0  0  0  0
    9.3928   -3.4998   -3.4232 C   0  0  0  0  0  0  0  0  0  0  0  0
    8.9601   -3.9973   -4.6531 C   0  0  0  0  0  0  0  0  0  0  0  0
    8.1916   -3.1949   -5.4905 C   0  0  0  0  0  0  0  0  0  0  0  0
    7.8529   -1.9037   -5.0951 C   0  0  0  0  0  0  0  0  0  0  0  0
    7.1217   -1.1484   -5.9269 F   0  0  0  0  0  0  0  0  0  0  0  0
    7.2716    0.5186    1.3990 C   0  0  0  0  0  0  0  0  0  0  0  0
    6.4738    0.4043    2.5371 C   0  0  0  0  0  0  0  0  0  0  0  0
    5.0873    0.2584    2.4095 C   0  0  0  0  0  0  0  0  0  0  0  0
    0.6528    0.2363    1.1014 H   0  0  0  0  0  0  0  0  0  0  0  0
    0.4813    0.0259   -1.8449 H   0  0  0  0  0  0  0  0  0  0  0  0
   -0.7113    0.6833   -0.7193 H   0  0  0  0  0  0  0  0  0  0  0  0
   -0.0537   -2.3143   -1.0958 H   0  0  0  0  0  0  0  0  0  0  0  0
   -1.4376   -1.4612   -1.7756 H   0  0  0  0  0  0  0  0  0  0  0  0
   -4.1130   -2.3422    1.8044 H   0  0  0  0  0  0  0  0  0  0  0  0
   -3.4903   -0.7738    2.4664 H   0  0  0  0  0  0  0  0  0  0  0  0
   -2.5848   -2.9140    4.4088 H   0  0  0  0  0  0  0  0  0  0  0  0
   -0.3788   -3.9868    4.8408 H   0  0  0  0  0  0  0  0  0  0  0  0
    1.3616   -4.0405    3.0760 H   0  0  0  0  0  0  0  0  0  0  0  0
    0.9399   -3.0137    0.8598 H   0  0  0  0  0  0  0  0  0  0  0  0
    2.5918   -0.0157    1.9512 H   0  0  0  0  0  0  0  0  0  0  0  0
    4.8531    0.4454   -0.9738 H   0  0  0  0  0  0  0  0  0  0  0  0
    6.2364   -0.4745   -2.2500 H   0  0  0  0  0  0  0  0  0  0  0  0
    8.8107    0.6087   -3.3412 H   0  0  0  0  0  0  0  0  0  0  0  0
    7.2828    0.4977   -4.2171 H   0  0  0  0  0  0  0  0  0  0  0  0
    9.3987   -1.8228   -2.0713 H   0  0  0  0  0  0  0  0  0  0  0  0
   10.0033   -4.1191   -2.7709 H   0  0  0  0  0  0  0  0  0  0  0  0
    9.2289   -5.0064   -4.9576 H   0  0  0  0  0  0  0  0  0  0  0  0
    7.8541   -3.5643   -6.4557 H   0  0  0  0  0  0  0  0  0  0  0  0
    8.3502    0.6269    1.5017 H   0  0  0  0  0  0  0  0  0  0  0  0
    6.9333    0.4276    3.5224 H   0  0  0  0  0  0  0  0  0  0  0  0
    4.4912    0.1668    3.3142 H   0  0  0  0  0  0  0  0  0  0  0  0
  1  2  2  0  0  0  0
  2  3  1  0  0  0  0
  2 16  1  0  0  0  0
  3  4  1  0  0  0  0
  3 34  1  0  0  0  0
  4  5  1  0  0  0  0
  4 35  1  0  0  0  0
  4 36  1  0  0  0  0
  5  6  1  0  0  0  0
  5 37  1  0  0  0  0
  5 38  1  0  0  0  0
  6  7  1  0  0  0  0
  6 15  1  0  0  0  0
  7  8  2  0  0  0  0
  7  9  1  0  0  0  0
  9 10  1  0  0  0  0
  9 39  1  0  0  0  0
  9 40  1  0  0  0  0
 10 11  2  0  0  0  0
 10 15  1  0  0  0  0
 11 12  1  0  0  0  0
 11 41  1  0  0  0  0
 12 13  2  0  0  0  0
 12 42  1  0  0  0  0
 13 14  1  0  0  0  0
 13 43  1  0  0  0  0
 14 15  2  0  0  0  0
 14 44  1  0  0  0  0
 16 17  1  0  0  0  0
 16 45  1  0  0  0  0
 17 18  2  0  0  0  0
 17 33  1  0  0  0  0
 18 19  1  0  0  0  0
 18 46  1  0  0  0  0
 19 20  1  0  0  0  0
 19 31  2  0  0  0  0
 20 21  2  0  0  0  0
 20 22  1  0  0  0  0
 22 23  1  0  0  0  0
 22 47  1  0  0  0  0
 23 24  1  0  0  0  0
 23 48  1  0  0  0  0
 23 49  1  0  0  0  0
 24 25  2  0  0  0  0
 24 29  1  0  0  0  0
 25 26  1  0  0  0  0
 25 50  1  0  0  0  0
 26 27  2  0  0  0  0
 26 51  1  0  0  0  0
 27 28  1  0  0  0  0
 27 52  1  0  0  0  0
 28 29  2  0  0  0  0
 28 53  1  0  0  0  0
 29 30  1  0  0  0  0
 31 32  1  0  0  0  0
 31 54  1  0  0  0  0
 32 33  2  0  0  0  0
 32 55  1  0  0  0  0
 33 56  1  0  0  0  0
M  END
$$$$
