
 OpenBabel01122422393D

 45 48  0  0  0  0  0  0  0  0999 V2000
    3.0153    0.8338    2.2229 O   0  0  0  0  0  0  0  0  0  0  0  0
    3.3591    0.3136    1.1615 C   0  0  0  0  0  0  0  0  0  0  0  0
    3.0436   -0.9897    0.8581 N   0  0  0  0  0  0  0  0  0  0  0  0
    2.2956   -1.7880    1.7996 C   0  0  0  0  0  0  0  0  0  0  0  0
    3.1835   -2.6946    2.6040 C   0  0  0  0  0  0  0  0  0  0  0  0
    3.8676   -2.2267    3.7380 C   0  0  0  0  0  0  0  0  0  0  0  0
    4.6678   -3.0961    4.4816 C   0  0  0  0  0  0  0  0  0  0  0  0
    4.8177   -4.4264    4.0862 C   0  0  0  0  0  0  0  0  0  0  0  0
    5.6239   -5.2062    4.8873 O   0  0  0  0  0  0  0  0  0  0  0  0
    6.3696   -6.2170    4.3338 C   0  0  0  0  0  0  0  0  0  0  0  0
    6.9472   -6.1713    3.0565 C   0  0  0  0  0  0  0  0  0  0  0  0
    7.6822   -7.2644    2.5837 C   0  0  0  0  0  0  0  0  0  0  0  0
    7.9036   -8.3591    3.4083 C   0  0  0  0  0  0  0  0  0  0  0  0
    7.3868   -8.3885    4.6979 C   0  0  0  0  0  0  0  0  0  0  0  0
    6.6170   -7.3134    5.1597 C   0  0  0  0  0  0  0  0  0  0  0  0
    4.1235   -4.9080    2.9749 C   0  0  0  0  0  0  0  0  0  0  0  0
    3.3293   -4.0160    2.2288 C   0  0  0  0  0  0  0  0  0  0  0  0
    2.7078   -4.4750    1.1418 F   0  0  0  0  0  0  0  0  0  0  0  0
    4.0108    1.1484    0.1152 C   0  0  0  0  0  0  0  0  0  0  0  0
    3.6695    1.0252   -1.2379 C   0  0  0  0  0  0  0  0  0  0  0  0
    3.9034    2.0952   -2.1210 C   0  0  0  0  0  0  0  0  0  0  0  0
    4.3465    3.3274   -1.6302 C   0  0  0  0  0  0  0  0  0  0  0  0
    4.6480    3.4320   -0.2763 C   0  0  0  0  0  0  0  0  0  0  0  0
    4.6417    2.3134    0.5363 C   0  0  0  0  0  0  0  0  0  0  0  0
    5.0907    2.4926    1.9066 C   0  0  0  0  0  0  0  0  0  0  0  0
    5.7545    1.6235    2.4731 O   0  0  0  0  0  0  0  0  0  0  0  0
    4.7052    3.6845    2.4514 N   0  0  0  0  0  0  0  0  0  0  0  0
    4.5109    4.8283    1.7165 N   0  0  0  0  0  0  0  0  0  0  0  0
    4.6062    4.7254    0.4229 C   0  0  0  0  0  0  0  0  0  0  0  0
    3.4094   -1.4337    0.0293 H   0  0  0  0  0  0  0  0  0  0  0  0
    1.5683   -2.3656    1.2274 H   0  0  0  0  0  0  0  0  0  0  0  0
    1.7100   -1.1495    2.4774 H   0  0  0  0  0  0  0  0  0  0  0  0
    3.7770   -1.1796    4.0542 H   0  0  0  0  0  0  0  0  0  0  0  0
    5.1897   -2.7278    5.3617 H   0  0  0  0  0  0  0  0  0  0  0  0
    6.8178   -5.3028    2.4175 H   0  0  0  0  0  0  0  0  0  0  0  0
    8.1008   -7.2319    1.5787 H   0  0  0  0  0  0  0  0  0  0  0  0
    8.4946   -9.2041    3.0394 H   0  0  0  0  0  0  0  0  0  0  0  0
    7.5776   -9.2326    5.3471 H   0  0  0  0  0  0  0  0  0  0  0  0
    6.2134   -7.3322    6.1697 H   0  0  0  0  0  0  0  0  0  0  0  0
    4.1759   -5.9403    2.6668 H   0  0  0  0  0  0  0  0  0  0  0  0
    3.1328    0.1538   -1.6042 H   0  0  0  0  0  0  0  0  0  0  0  0
    3.6182    2.0028   -3.1666 H   0  0  0  0  0  0  0  0  0  0  0  0
    4.3688    4.1977   -2.2819 H   0  0  0  0  0  0  0  0  0  0  0  0
    4.2729    3.6342    3.3699 H   0  0  0  0  0  0  0  0  0  0  0  0
    4.5347    5.6434   -0.1795 H   0  0  0  0  0  0  0  0  0  0  0  0
  1  2  2  0  0  0  0
  2  3  1  0  0  0  0
  2 19  1  0  0  0  0
  3  4  1  0  0  0  0
  3 30  1  0  0  0  0
  4  5  1  0  0  0  0
  4 31  1  0  0  0  0
  4 32  1  0  0  0  0
  5  6  2  0  0  0  0
  5 17  1  0  0  0  0
  6  7  1  0  0  0  0
  6 33  1  0  0  0  0
  7  8  2  0  0  0  0
  7 34  1  0  0  0  0
  8  9  1  0  0  0  0
  8 16  1  0  0  0  0
  9 10  1  0  0  0  0
 10 11  2  0  0  0  0
 10 15  1  0  0  0  0
 11 12  1  0  0  0  0
 11 35  1  0  0  0  0
 12 13  2  0  0  0  0
 12 36  1  0  0  0  0
 13 14  1  0  0  0  0
 13 37  1  0  0  0  0
 14 15  2  0  0  0  0
 14 38  1  0  0  0  0
 15 39  1  0  0  0  0
 16 17  2  0  0  0  0
 16 40  1  0  0  0  0
 17 18  1  0  0  0  0
 19 20  2  0  0  0  0
 19 24  1  0  0  0  0
 20 21  1  0  0  0  0
 20 41  1  0  0  0  0
 21 22  2  0  0  0  0
 21 42  1  0  0  0  0
 22 23  1  0  0  0  0
 22 43  1  0  0  0  0
 23 24  2  0  0  0  0
 23 29  1  0  0  0  0
 24 25  1  0  0  0  0
 25 26  2  0  0  0  0
 25 27  1  0  0  0  0
 27 28  1  0  0  0  0
 27 44  1  0  0  0  0
 28 29  2  0  0  0  0
 29 45  1  0  0  0  0
M  END
$$$$
