
 OpenBabel01122422393D

 52 55  0  0  0  0  0  0  0  0999 V2000
    5.4879    7.7951    2.9266 C   0  0  0  0  0  0  0  0  0  0  0  0
    4.8195    7.4677    4.1401 O   0  0  0  0  0  0  0  0  0  0  0  0
    5.1587    6.2155    4.6127 C   0  0  0  0  0  0  0  0  0  0  0  0
    4.7227    5.9071    5.8901 C   0  0  0  0  0  0  0  0  0  0  0  0
    5.1040    4.6898    6.4377 C   0  0  0  0  0  0  0  0  0  0  0  0
    5.8735    3.8168    5.6760 C   0  0  0  0  0  0  0  0  0  0  0  0
    6.2147    4.1720    4.3692 C   0  0  0  0  0  0  0  0  0  0  0  0
    6.8993    3.1348    3.4983 C   0  0  0  0  0  0  0  0  0  0  0  0
    7.3106    3.5584    2.1571 N   0  0  0  0  0  0  0  0  0  0  0  0
    6.7677    2.7450    1.0775 C   0  0  0  0  0  0  0  0  0  0  0  0
    8.2843    4.4890    1.8315 C   0  0  0  0  0  0  0  0  0  0  0  0
    8.6055    4.6521    0.6448 O   0  0  0  0  0  0  0  0  0  0  0  0
    8.9613    5.3653    2.8404 C   0  0  0  0  0  0  0  0  0  0  0  0
    9.4186    6.5477    2.3731 C   0  0  0  0  0  0  0  0  0  0  0  0
   10.1622    7.4612    3.0736 N   0  0  0  0  0  0  0  0  0  0  0  0
   10.3618    7.3024    4.4466 C   0  0  0  0  0  0  0  0  0  0  0  0
   11.1413    8.1972    5.1767 C   0  0  0  0  0  0  0  0  0  0  0  0
   11.3413    7.9982    6.5478 C   0  0  0  0  0  0  0  0  0  0  0  0
   10.7457    6.9216    7.2169 C   0  0  0  0  0  0  0  0  0  0  0  0
   11.0442    6.8364    8.5536 O   0  0  0  0  0  0  0  0  0  0  0  0
   10.1681    6.3569    9.4999 C   0  0  0  0  0  0  0  0  0  0  0  0
    8.7976    6.1437    9.3505 C   0  0  0  0  0  0  0  0  0  0  0  0
    8.0437    5.6404   10.4190 C   0  0  0  0  0  0  0  0  0  0  0  0
    8.6433    5.3934   11.6543 C   0  0  0  0  0  0  0  0  0  0  0  0
    9.9977    5.6579   11.8276 C   0  0  0  0  0  0  0  0  0  0  0  0
   10.7533    6.1347   10.7543 C   0  0  0  0  0  0  0  0  0  0  0  0
   10.0613    5.9627    6.4753 C   0  0  0  0  0  0  0  0  0  0  0  0
    9.8962    6.1479    5.0906 C   0  0  0  0  0  0  0  0  0  0  0  0
    9.3352    5.0559    4.2528 C   0  0  0  0  0  0  0  0  0  0  0  0
    9.2907    3.9364    4.7356 O   0  0  0  0  0  0  0  0  0  0  0  0
    5.8765    5.3739    3.8372 N   0  0  0  0  0  0  0  0  0  0  0  0
    5.2547    8.8372    2.6880 H   0  0  0  0  0  0  0  0  0  0  0  0
    5.1300    7.1716    2.1008 H   0  0  0  0  0  0  0  0  0  0  0  0
    6.5756    7.7205    3.0355 H   0  0  0  0  0  0  0  0  0  0  0  0
    4.1108    6.6067    6.4476 H   0  0  0  0  0  0  0  0  0  0  0  0
    4.7972    4.4184    7.4434 H   0  0  0  0  0  0  0  0  0  0  0  0
    6.1847    2.8612    6.0884 H   0  0  0  0  0  0  0  0  0  0  0  0
    6.1638    2.3279    3.3774 H   0  0  0  0  0  0  0  0  0  0  0  0
    7.7448    2.6552    3.9884 H   0  0  0  0  0  0  0  0  0  0  0  0
    5.6802    2.6794    1.1885 H   0  0  0  0  0  0  0  0  0  0  0  0
    7.2017    1.7424    1.1518 H   0  0  0  0  0  0  0  0  0  0  0  0
    6.9840    3.1465    0.0846 H   0  0  0  0  0  0  0  0  0  0  0  0
    9.2415    6.8548    1.3430 H   0  0  0  0  0  0  0  0  0  0  0  0
   10.2859    8.3842    2.6678 H   0  0  0  0  0  0  0  0  0  0  0  0
   11.6284    9.0344    4.6843 H   0  0  0  0  0  0  0  0  0  0  0  0
   11.9888    8.6782    7.0973 H   0  0  0  0  0  0  0  0  0  0  0  0
    8.2832    6.3636    8.4209 H   0  0  0  0  0  0  0  0  0  0  0  0
    6.9819    5.4471   10.2897 H   0  0  0  0  0  0  0  0  0  0  0  0
    8.0537    5.0074   12.4823 H   0  0  0  0  0  0  0  0  0  0  0  0
   10.4676    5.4945   12.7944 H   0  0  0  0  0  0  0  0  0  0  0  0
   11.8105    6.3439   10.8998 H   0  0  0  0  0  0  0  0  0  0  0  0
    9.6899    5.0549    6.9413 H   0  0  0  0  0  0  0  0  0  0  0  0
  1  2  1  0  0  0  0
  1 32  1  0  0  0  0
  1 33  1  0  0  0  0
  1 34  1  0  0  0  0
  2  3  1  0  0  0  0
  3  4  2  0  0  0  0
  3 31  1  0  0  0  0
  4  5  1  0  0  0  0
  4 35  1  0  0  0  0
  5  6  2  0  0  0  0
  5 36  1  0  0  0  0
  6  7  1  0  0  0  0
  6 37  1  0  0  0  0
  7  8  1  0  0  0  0
  7 31  2  0  0  0  0
  8  9  1  0  0  0  0
  8 38  1  0  0  0  0
  8 39  1  0  0  0  0
  9 10  1  0  0  0  0
  9 11  1  0  0  0  0
 10 40  1  0  0  0  0
 10 41  1  0  0  0  0
 10 42  1  0  0  0  0
 11 12  2  0  0  0  0
 11 13  1  0  0  0  0
 13 14  2  0  0  0  0
 13 29  1  0  0  0  0
 14 15  1  0  0  0  0
 14 43  1  0  0  0  0
 15 16  1  0  0  0  0
 15 44  1  0  0  0  0
 16 17  2  0  0  0  0
 16 28  1  0  0  0  0
 17 18  1  0  0  0  0
 17 45  1  0  0  0  0
 18 19  2  0  0  0  0
 18 46  1  0  0  0  0
 19 20  1  0  0  0  0
 19 27  1  0  0  0  0
 20 21  1  0  0  0  0
 21 22  2  0  0  0  0
 21 26  1  0  0  0  0
 22 23  1  0  0  0  0
 22 47  1  0  0  0  0
 23 24  2  0  0  0  0
 23 48  1  0  0  0  0
 24 25  1  0  0  0  0
 24 49  1  0  0  0  0
 25 26  2  0  0  0  0
 25 50  1  0  0  0  0
 26 51  1  0  0  0  0
 27 28  2  0  0  0  0
 27 52  1  0  0  0  0
 28 29  1  0  0  0  0
 29 30  2  0  0  0  0
M  END
$$$$
