
 OpenBabel01122422393D

 37 40  0  0  0  0  0  0  0  0999 V2000
    1.0258    0.1055    0.1768 O   0  0  0  0  0  0  0  0  0  0  0  0
    2.2332   -0.0501    0.0398 C   0  0  0  0  0  0  0  0  0  0  0  0
    2.8699   -0.8331   -0.8947 N   0  0  0  0  0  0  0  0  0  0  0  0
    2.1850   -1.5159   -1.8635 C   0  0  0  0  0  0  0  0  0  0  0  0
    0.9163   -1.3311   -2.2101 N   0  0  0  0  0  0  0  0  0  0  0  0
    0.6939   -2.3094   -3.1009 N   0  0  0  0  0  0  0  0  0  0  0  0
   -0.5932   -2.5182   -3.6523 C   0  0  0  0  0  0  0  0  0  0  0  0
   -1.6336   -1.6301   -3.3276 C   0  0  0  0  0  0  0  0  0  0  0  0
   -2.9025   -1.8266   -3.8651 C   0  0  0  0  0  0  0  0  0  0  0  0
   -3.8876   -0.9713   -3.5627 F   0  0  0  0  0  0  0  0  0  0  0  0
   -3.1642   -2.8942   -4.7105 C   0  0  0  0  0  0  0  0  0  0  0  0
   -2.1338   -3.7722   -5.0162 C   0  0  0  0  0  0  0  0  0  0  0  0
   -2.3754   -4.8142   -5.8218 F   0  0  0  0  0  0  0  0  0  0  0  0
   -0.8492   -3.5987   -4.5025 C   0  0  0  0  0  0  0  0  0  0  0  0
    1.8668   -2.9912   -3.3142 C   0  0  0  0  0  0  0  0  0  0  0  0
    2.8278   -2.4933   -2.5651 N   0  0  0  0  0  0  0  0  0  0  0  0
    3.0964    0.6279    1.0210 C   0  0  0  0  0  0  0  0  0  0  0  0
    2.6348    0.7495    2.3212 C   0  0  0  0  0  0  0  0  0  0  0  0
    3.2841    1.4377    3.2889 N   0  0  0  0  0  0  0  0  0  0  0  0
    4.4214    2.0864    2.9637 C   0  0  0  0  0  0  0  0  0  0  0  0
    5.0887    2.8741    3.9043 C   0  0  0  0  0  0  0  0  0  0  0  0
    4.6037    2.9786    5.1525 F   0  0  0  0  0  0  0  0  0  0  0  0
    6.2479    3.5876    3.5983 C   0  0  0  0  0  0  0  0  0  0  0  0
    6.7784    3.5123    2.3176 C   0  0  0  0  0  0  0  0  0  0  0  0
    6.1387    2.7265    1.3650 C   0  0  0  0  0  0  0  0  0  0  0  0
    6.6612    2.6674    0.1306 F   0  0  0  0  0  0  0  0  0  0  0  0
    4.9640    2.0155    1.6614 C   0  0  0  0  0  0  0  0  0  0  0  0
    4.2902    1.2568    0.6862 C   0  0  0  0  0  0  0  0  0  0  0  0
    3.8448   -1.0756   -0.8202 H   0  0  0  0  0  0  0  0  0  0  0  0
   -1.4777   -0.7813   -2.6627 H   0  0  0  0  0  0  0  0  0  0  0  0
   -4.1560   -3.0403   -5.1218 H   0  0  0  0  0  0  0  0  0  0  0  0
   -0.0951   -4.3282   -4.7763 H   0  0  0  0  0  0  0  0  0  0  0  0
    1.9648   -3.8197   -3.9992 H   0  0  0  0  0  0  0  0  0  0  0  0
    1.6955    0.2961    2.6327 H   0  0  0  0  0  0  0  0  0  0  0  0
    6.7155    4.1980    4.3649 H   0  0  0  0  0  0  0  0  0  0  0  0
    7.6757    4.0629    2.0522 H   0  0  0  0  0  0  0  0  0  0  0  0
    4.6679    1.2252   -0.3330 H   0  0  0  0  0  0  0  0  0  0  0  0
  1  2  2  0  0  0  0
  2  3  1  0  0  0  0
  2 17  1  0  0  0  0
  3  4  1  0  0  0  0
  3 29  1  0  0  0  0
  4  5  2  0  0  0  0
  4 16  1  0  0  0  0
  5  6  1  0  0  0  0
  6  7  1  0  0  0  0
  6 15  1  0  0  0  0
  7  8  2  0  0  0  0
  7 14  1  0  0  0  0
  8  9  1  0  0  0  0
  8 30  1  0  0  0  0
  9 10  1  0  0  0  0
  9 11  2  0  0  0  0
 11 12  1  0  0  0  0
 11 31  1  0  0  0  0
 12 13  1  0  0  0  0
 12 14  2  0  0  0  0
 14 32  1  0  0  0  0
 15 16  2  0  0  0  0
 15 33  1  0  0  0  0
 17 18  2  0  0  0  0
 17 28  1  0  0  0  0
 18 19  1  0  0  0  0
 18 34  1  0  0  0  0
 19 20  2  0  0  0  0
 20 21  1  0  0  0  0
 20 27  1  0  0  0  0
 21 22  1  0  0  0  0
 21 23  2  0  0  0  0
 23 24  1  0  0  0  0
 23 35  1  0  0  0  0
 24 25  2  0  0  0  0
 24 36  1  0  0  0  0
 25 26  1  0  0  0  0
 25 27  1  0  0  0  0
 27 28  2  0  0  0  0
 28 37  1  0  0  0  0
M  END
$$$$
