
 OpenBabel01122422393D

 49 52  0  0  1  0  0  0  0  0999 V2000
   -0.3648   -0.8173    1.9394 N   0  0  0  0  0  0  0  0  0  0  0  0
   -0.1742    0.2463    0.9414 C   0  0  0  0  0  0  0  0  0  0  0  0
    0.9052   -0.0674   -0.1376 C   0  0  3  0  0  0  0  0  0  0  0  0
    0.6233   -1.2902   -0.8716 N   0  0  0  0  0  0  0  0  0  0  0  0
    1.1515   -2.4953   -0.4927 C   0  0  0  0  0  0  0  0  0  0  0  0
    1.9159   -2.6309    0.4579 O   0  0  0  0  0  0  0  0  0  0  0  0
    0.7666   -3.6763   -1.3091 C   0  0  0  0  0  0  0  0  0  0  0  0
    1.6513   -4.7574   -1.3263 C   0  0  0  0  0  0  0  0  0  0  0  0
    1.2451   -5.9841   -1.8414 C   0  0  0  0  0  0  0  0  0  0  0  0
   -0.0868   -6.1629   -2.2499 C   0  0  0  0  0  0  0  0  0  0  0  0
   -0.6923   -7.4906   -2.1354 N   0  0  0  0  0  0  0  0  0  0  0  0
   -2.0658   -7.4715   -1.9718 C   0  0  0  0  0  0  0  0  0  0  0  0
   -2.6501   -7.3832   -0.8139 N   0  0  0  0  0  0  0  0  0  0  0  0
   -1.7721   -7.3132    0.2919 C   0  0  0  0  0  0  0  0  0  0  0  0
   -2.1089   -6.5877    1.4320 C   0  0  0  0  0  0  0  0  0  0  0  0
   -1.1695   -6.4234    2.4544 C   0  0  0  0  0  0  0  0  0  0  0  0
    0.0944   -7.0251    2.3729 C   0  0  0  0  0  0  0  0  0  0  0  0
    0.4383   -7.7688    1.2464 C   0  0  0  0  0  0  0  0  0  0  0  0
   -0.4885   -7.8689    0.2120 C   0  0  0  0  0  0  0  0  0  0  0  0
   -0.0848   -8.2786   -1.1541 C   0  0  0  0  0  0  0  0  0  0  0  0
    0.7330   -9.1677   -1.3542 O   0  0  0  0  0  0  0  0  0  0  0  0
   -0.8862   -5.0235   -2.4490 C   0  0  0  0  0  0  0  0  0  0  0  0
   -0.4706   -3.7853   -1.9511 C   0  0  0  0  0  0  0  0  0  0  0  0
    1.1005    1.0618   -1.1245 C   0  0  0  0  0  0  0  0  0  0  0  0
    2.3587    1.6677   -1.2630 C   0  0  0  0  0  0  0  0  0  0  0  0
    2.5611    2.6693   -2.2149 C   0  0  0  0  0  0  0  0  0  0  0  0
    1.5124    3.0743   -3.0404 C   0  0  0  0  0  0  0  0  0  0  0  0
    0.2569    2.4752   -2.9141 C   0  0  0  0  0  0  0  0  0  0  0  0
    0.0656    1.4786   -1.9679 C   0  0  0  0  0  0  0  0  0  0  0  0
   -1.1327    0.8795   -1.9051 F   0  0  0  0  0  0  0  0  0  0  0  0
   -0.6803   -0.4146    2.8183 H   0  0  0  0  0  0  0  0  0  0  0  0
    0.5295   -1.2804    2.1217 H   0  0  0  0  0  0  0  0  0  0  0  0
    0.1104    1.1683    1.4630 H   0  0  0  0  0  0  0  0  0  0  0  0
   -1.1481    0.4284    0.4751 H   0  0  0  0  0  0  0  0  0  0  0  0
    1.8509   -0.2157    0.4016 H   0  0  0  0  0  0  0  0  0  0  0  0
   -0.0313   -1.2289   -1.6369 H   0  0  0  0  0  0  0  0  0  0  0  0
    2.6276   -4.6737   -0.8520 H   0  0  0  0  0  0  0  0  0  0  0  0
    1.9305   -6.8261   -1.7595 H   0  0  0  0  0  0  0  0  0  0  0  0
   -2.6341   -7.4754   -2.9136 H   0  0  0  0  0  0  0  0  0  0  0  0
   -3.0758   -6.0958    1.4937 H   0  0  0  0  0  0  0  0  0  0  0  0
   -1.4092   -5.7916    3.3119 H   0  0  0  0  0  0  0  0  0  0  0  0
    0.8212   -6.8669    3.1632 H   0  0  0  0  0  0  0  0  0  0  0  0
    1.4396   -8.1780    1.1369 H   0  0  0  0  0  0  0  0  0  0  0  0
   -1.8990   -5.0973   -2.8390 H   0  0  0  0  0  0  0  0  0  0  0  0
   -1.1790   -2.9622   -1.9664 H   0  0  0  0  0  0  0  0  0  0  0  0
    3.1957    1.3507   -0.6432 H   0  0  0  0  0  0  0  0  0  0  0  0
    3.5435    3.1252   -2.3204 H   0  0  0  0  0  0  0  0  0  0  0  0
    1.6753    3.8479   -3.7872 H   0  0  0  0  0  0  0  0  0  0  0  0
   -0.5603    2.7689   -3.5640 H   0  0  0  0  0  0  0  0  0  0  0  0
  1  2  1  0  0  0  0
  1 31  1  0  0  0  0
  1 32  1  0  0  0  0
  2  3  1  0  0  0  0
  2 33  1  0  0  0  0
  2 34  1  0  0  0  0
  3  4  1  0  0  0  0
  3 24  1  0  0  0  0
  3 35  1  0  0  0  0
  4  5  1  0  0  0  0
  4 36  1  0  0  0  0
  5  6  2  0  0  0  0
  5  7  1  0  0  0  0
  7  8  2  0  0  0  0
  7 23  1  0  0  0  0
  8  9  1  0  0  0  0
  8 37  1  0  0  0  0
  9 10  2  0  0  0  0
  9 38  1  0  0  0  0
 10 11  1  0  0  0  0
 10 22  1  0  0  0  0
 11 12  1  0  0  0  0
 11 20  1  0  0  0  0
 12 13  2  0  0  0  0
 12 39  1  0  0  0  0
 13 14  1  0  0  0  0
 14 15  2  0  0  0  0
 14 19  1  0  0  0  0
 15 16  1  0  0  0  0
 15 40  1  0  0  0  0
 16 17  2  0  0  0  0
 16 41  1  0  0  0  0
 17 18  1  0  0  0  0
 17 42  1  0  0  0  0
 18 19  2  0  0  0  0
 18 43  1  0  0  0  0
 19 20  1  0  0  0  0
 20 21  2  0  0  0  0
 22 23  2  0  0  0  0
 22 44  1  0  0  0  0
 23 45  1  0  0  0  0
 24 25  2  0  0  0  0
 24 29  1  0  0  0  0
 25 26  1  0  0  0  0
 25 46  1  0  0  0  0
 26 27  2  0  0  0  0
 26 47  1  0  0  0  0
 27 28  1  0  0  0  0
 27 48  1  0  0  0  0
 28 29  2  0  0  0  0
 28 49  1  0  0  0  0
 29 30  1  0  0  0  0
M  END
$$$$
