
 OpenBabel01122422393D

 41 44  0  0  0  0  0  0  0  0999 V2000
    1.2315    0.6663   -0.6671 O   0  0  0  0  0  0  0  0  0  0  0  0
    2.3344    0.2621   -0.3079 C   0  0  0  0  0  0  0  0  0  0  0  0
    2.8577   -0.9860   -0.5997 N   0  0  0  0  0  0  0  0  0  0  0  0
    2.1758   -1.9857   -1.3273 C   0  0  0  0  0  0  0  0  0  0  0  0
    1.0640   -1.7222   -2.1307 C   0  0  0  0  0  0  0  0  0  0  0  0
    0.3807   -2.7599   -2.7557 C   0  0  0  0  0  0  0  0  0  0  0  0
    0.8573   -4.0430   -2.5848 C   0  0  0  0  0  0  0  0  0  0  0  0
    0.1700   -5.0486   -3.2525 O   0  0  0  0  0  0  0  0  0  0  0  0
    0.9039   -6.1361   -3.6620 C   0  0  0  0  0  0  0  0  0  0  0  0
    0.3028   -7.3892   -3.5893 C   0  0  0  0  0  0  0  0  0  0  0  0
   -0.9621   -7.5123   -3.1577 F   0  0  0  0  0  0  0  0  0  0  0  0
    1.0194   -8.5205   -3.9612 C   0  0  0  0  0  0  0  0  0  0  0  0
    0.4541   -9.7330   -3.8784 F   0  0  0  0  0  0  0  0  0  0  0  0
    2.3316   -8.4147   -4.4176 C   0  0  0  0  0  0  0  0  0  0  0  0
    2.9188   -7.1580   -4.5398 C   0  0  0  0  0  0  0  0  0  0  0  0
    2.1984   -6.0206   -4.1867 C   0  0  0  0  0  0  0  0  0  0  0  0
    1.9442   -4.3461   -1.8336 N   0  0  0  0  0  0  0  0  0  0  0  0
    2.5860   -3.3116   -1.2393 C   0  0  0  0  0  0  0  0  0  0  0  0
    3.1486    1.0878    0.5417 C   0  0  0  0  0  0  0  0  0  0  0  0
    4.3738    0.8599    0.9667 N   0  0  0  0  0  0  0  0  0  0  0  0
    4.7216    1.9156    1.7965 N   0  0  0  0  0  0  0  0  0  0  0  0
    3.6938    2.7453    1.8695 C   0  0  0  0  0  0  0  0  0  0  0  0
    3.5191    3.9566    2.6529 C   0  0  0  0  0  0  0  0  0  0  0  0
    4.5069    4.4357    3.4983 C   0  0  0  0  0  0  0  0  0  0  0  0
    4.2447    5.5836    4.2381 C   0  0  0  0  0  0  0  0  0  0  0  0
    3.0083    6.2088    4.1165 C   0  0  0  0  0  0  0  0  0  0  0  0
    2.0820    5.6658    3.2443 C   0  0  0  0  0  0  0  0  0  0  0  0
    2.3047    4.5541    2.5084 N   0  0  0  0  0  0  0  0  0  0  0  0
    2.7040    2.2650    1.0642 N   0  0  0  0  0  0  0  0  0  0  0  0
    3.7216   -1.2295   -0.1206 H   0  0  0  0  0  0  0  0  0  0  0  0
    0.7060   -0.7138   -2.3080 H   0  0  0  0  0  0  0  0  0  0  0  0
   -0.4888   -2.5608   -3.3711 H   0  0  0  0  0  0  0  0  0  0  0  0
    2.8855   -9.3105   -4.6779 H   0  0  0  0  0  0  0  0  0  0  0  0
    3.9435   -7.0574   -4.8921 H   0  0  0  0  0  0  0  0  0  0  0  0
    2.6666   -5.0436   -4.2887 H   0  0  0  0  0  0  0  0  0  0  0  0
    3.4533   -3.6055   -0.6547 H   0  0  0  0  0  0  0  0  0  0  0  0
    5.4589    3.9220    3.5834 H   0  0  0  0  0  0  0  0  0  0  0  0
    4.9942    5.9789    4.9182 H   0  0  0  0  0  0  0  0  0  0  0  0
    2.7757    7.1036    4.6848 H   0  0  0  0  0  0  0  0  0  0  0  0
    1.1038    6.1221    3.1117 H   0  0  0  0  0  0  0  0  0  0  0  0
    1.7909    2.6785    0.9323 H   0  0  0  0  0  0  0  0  0  0  0  0
  1  2  2  0  0  0  0
  2  3  1  0  0  0  0
  2 19  1  0  0  0  0
  3  4  1  0  0  0  0
  3 30  1  0  0  0  0
  4  5  2  0  0  0  0
  4 18  1  0  0  0  0
  5  6  1  0  0  0  0
  5 31  1  0  0  0  0
  6  7  2  0  0  0  0
  6 32  1  0  0  0  0
  7  8  1  0  0  0  0
  7 17  1  0  0  0  0
  8  9  1  0  0  0  0
  9 10  2  0  0  0  0
  9 16  1  0  0  0  0
 10 11  1  0  0  0  0
 10 12  1  0  0  0  0
 12 13  1  0  0  0  0
 12 14  2  0  0  0  0
 14 15  1  0  0  0  0
 14 33  1  0  0  0  0
 15 16  2  0  0  0  0
 15 34  1  0  0  0  0
 16 35  1  0  0  0  0
 17 18  2  0  0  0  0
 18 36  1  0  0  0  0
 19 20  2  0  0  0  0
 19 29  1  0  0  0  0
 20 21  1  0  0  0  0
 21 22  2  0  0  0  0
 22 23  1  0  0  0  0
 22 29  1  0  0  0  0
 23 24  2  0  0  0  0
 23 28  1  0  0  0  0
 24 25  1  0  0  0  0
 24 37  1  0  0  0  0
 25 26  2  0  0  0  0
 25 38  1  0  0  0  0
 26 27  1  0  0  0  0
 26 39  1  0  0  0  0
 27 28  2  0  0  0  0
 27 40  1  0  0  0  0
 29 41  1  0  0  0  0
M  END
$$$$
