
 OpenBabel01122422353D

 47 50  0  0  1  0  0  0  0  0999 V2000
    3.6791    1.7236    1.0557 O   0  0  0  0  0  0  0  0  0  0  0  0
    3.9077    0.5977    0.6324 C   0  0  0  0  0  0  0  0  0  0  0  0
    3.3180   -0.5679    1.1520 N   0  0  0  0  0  0  0  0  0  0  0  0
    2.4863   -0.5159    2.3830 C   0  0  3  0  0  0  0  0  0  0  0  0
    1.3699   -1.6009    2.4798 C   0  0  0  0  0  0  0  0  0  0  0  0
    0.6475   -1.7865    3.4435 O   0  0  0  0  0  0  0  0  0  0  0  0
    1.2600   -2.3505    1.3487 O   0  0  0  0  0  0  0  0  0  0  0  0
    3.4099   -0.5472    3.5851 C   0  0  0  0  0  0  0  0  0  0  0  0
    3.8339   -1.7343    4.1931 C   0  0  0  0  0  0  0  0  0  0  0  0
    4.7587   -1.6898    5.2330 C   0  0  0  0  0  0  0  0  0  0  0  0
    5.3045   -0.4674    5.6365 C   0  0  0  0  0  0  0  0  0  0  0  0
    4.9401    0.7378    5.0149 C   0  0  0  0  0  0  0  0  0  0  0  0
    5.6262    2.0164    5.2979 C   0  0  0  0  0  0  0  0  0  0  0  0
    6.9956    2.0444    5.5887 C   0  0  0  0  0  0  0  0  0  0  0  0
    7.6323    3.2636    5.7616 C   0  0  0  0  0  0  0  0  0  0  0  0
    7.0132    4.4548    5.6585 N   0  0  0  0  0  0  0  0  0  0  0  0
    5.6957    4.4229    5.3768 C   0  0  0  0  0  0  0  0  0  0  0  0
    4.9718    3.2533    5.1985 C   0  0  0  0  0  0  0  0  0  0  0  0
    3.9541    0.6703    4.0229 C   0  0  0  0  0  0  0  0  0  0  0  0
    4.7986    0.4051   -0.5603 C   0  0  0  0  0  0  0  0  0  0  0  0
    4.3405   -0.5419   -1.4925 C   0  0  0  0  0  0  0  0  0  0  0  0
    5.0275   -0.7576   -2.6745 C   0  0  0  0  0  0  0  0  0  0  0  0
    6.1611   -0.0067   -2.9527 C   0  0  0  0  0  0  0  0  0  0  0  0
    6.6416    0.9482   -2.0781 C   0  0  0  0  0  0  0  0  0  0  0  0
    7.7393    1.5927   -2.4944 N   0  0  0  0  0  0  0  0  0  0  0  0
    8.2569    2.5126   -1.6809 C   0  0  0  0  0  0  0  0  0  0  0  0
    9.3546    3.1216   -2.1920 O   0  0  0  0  0  0  0  0  0  0  0  0
    7.7588    2.8332   -0.4408 C   0  0  0  0  0  0  0  0  0  0  0  0
    6.6023    2.1638   -0.0183 C   0  0  0  0  0  0  0  0  0  0  0  0
    5.9815    1.1799   -0.8420 C   0  0  0  0  0  0  0  0  0  0  0  0
    3.8709   -1.4094    1.0293 H   0  0  0  0  0  0  0  0  0  0  0  0
    1.9330    0.4321    2.3593 H   0  0  0  0  0  0  0  0  0  0  0  0
    1.8412   -2.0118    0.6411 H   0  0  0  0  0  0  0  0  0  0  0  0
    3.4515   -2.7033    3.8773 H   0  0  0  0  0  0  0  0  0  0  0  0
    5.0752   -2.6094    5.7196 H   0  0  0  0  0  0  0  0  0  0  0  0
    6.0374   -0.4729    6.4400 H   0  0  0  0  0  0  0  0  0  0  0  0
    7.5810    1.1331    5.6480 H   0  0  0  0  0  0  0  0  0  0  0  0
    8.6951    3.3072    5.9787 H   0  0  0  0  0  0  0  0  0  0  0  0
    5.2173    5.3938    5.2841 H   0  0  0  0  0  0  0  0  0  0  0  0
    3.9133    3.3246    4.9691 H   0  0  0  0  0  0  0  0  0  0  0  0
    3.6380    1.5827    3.5176 H   0  0  0  0  0  0  0  0  0  0  0  0
    3.4185   -1.0915   -1.3294 H   0  0  0  0  0  0  0  0  0  0  0  0
    4.6744   -1.4892   -3.3957 H   0  0  0  0  0  0  0  0  0  0  0  0
    6.6874   -0.1652   -3.8918 H   0  0  0  0  0  0  0  0  0  0  0  0
    9.4080    2.6807   -3.0616 H   0  0  0  0  0  0  0  0  0  0  0  0
    8.2525    3.5800    0.1718 H   0  0  0  0  0  0  0  0  0  0  0  0
    6.1922    2.4151    0.9589 H   0  0  0  0  0  0  0  0  0  0  0  0
  1  2  2  0  0  0  0
  2  3  1  0  0  0  0
  2 20  1  0  0  0  0
  3  4  1  0  0  0  0
  3 31  1  0  0  0  0
  4  5  1  0  0  0  0
  4  8  1  0  0  0  0
  4 32  1  0  0  0  0
  5  6  2  0  0  0  0
  5  7  1  0  0  0  0
  7 33  1  0  0  0  0
  8  9  2  0  0  0  0
  8 19  1  0  0  0  0
  9 10  1  0  0  0  0
  9 34  1  0  0  0  0
 10 11  2  0  0  0  0
 10 35  1  0  0  0  0
 11 12  1  0  0  0  0
 11 36  1  0  0  0  0
 12 13  1  0  0  0  0
 12 19  2  0  0  0  0
 13 14  2  0  0  0  0
 13 18  1  0  0  0  0
 14 15  1  0  0  0  0
 14 37  1  0  0  0  0
 15 16  2  0  0  0  0
 15 38  1  0  0  0  0
 16 17  1  0  0  0  0
 17 18  2  0  0  0  0
 17 39  1  0  0  0  0
 18 40  1  0  0  0  0
 19 41  1  0  0  0  0
 20 21  2  0  0  0  0
 20 30  1  0  0  0  0
 21 22  1  0  0  0  0
 21 42  1  0  0  0  0
 22 23  2  0  0  0  0
 22 43  1  0  0  0  0
 23 24  1  0  0  0  0
 23 44  1  0  0  0  0
 24 25  2  0  0  0  0
 24 30  1  0  0  0  0
 25 26  1  0  0  0  0
 26 27  1  0  0  0  0
 26 28  2  0  0  0  0
 27 45  1  0  0  0  0
 28 29  1  0  0  0  0
 28 46  1  0  0  0  0
 29 30  2  0  0  0  0
 29 47  1  0  0  0  0
M  END
$$$$
