
 OpenBabel01122422393D

 58 61  0  0  1  0  0  0  0  0999 V2000
    0.4726    1.4725   11.5410 N   0  0  0  0  0  0  0  0  0  0  0  0
    0.3094    2.9516   11.3759 C   0  0  1  0  0  0  0  0  0  0  0  0
   -0.4401    3.3680   10.0993 C   0  0  0  0  0  0  0  0  0  0  0  0
    0.2395    2.9949    8.8001 C   0  0  0  0  0  0  0  0  0  0  0  0
   -0.0119    1.7556    8.1991 C   0  0  0  0  0  0  0  0  0  0  0  0
    0.5592    1.4421    6.9667 C   0  0  0  0  0  0  0  0  0  0  0  0
    1.3796    2.3617    6.3104 C   0  0  0  0  0  0  0  0  0  0  0  0
    1.6471    3.6023    6.8852 C   0  0  0  0  0  0  0  0  0  0  0  0
    2.4052    4.6122    6.2558 N   0  0  0  0  0  0  0  0  0  0  0  0
    2.9079    4.6296    4.9707 C   0  0  0  0  0  0  0  0  0  0  0  0
    2.9180    3.6797    4.1922 O   0  0  0  0  0  0  0  0  0  0  0  0
    3.5332    5.9627    4.5259 C   0  0  0  0  0  0  0  0  0  0  0  0
    2.9981    7.1342    5.2872 C   0  0  0  0  0  0  0  0  0  0  0  0
    3.6401    7.8222    6.3008 C   0  0  0  0  0  0  0  0  0  0  0  0
    2.7617    8.7764    6.7359 N   0  0  0  0  0  0  0  0  0  0  0  0
    1.4907    8.3649    6.4173 C   0  0  0  0  0  0  0  0  0  0  0  0
    0.2486    8.6194    7.0029 C   0  0  0  0  0  0  0  0  0  0  0  0
   -0.8829    8.1327    6.3386 C   0  0  0  0  0  0  0  0  0  0  0  0
   -2.0551    8.2989    7.0301 O   0  0  0  0  0  0  0  0  0  0  0  0
   -3.2494    8.1140    6.2748 C   0  0  0  0  0  0  0  0  0  0  0  0
   -4.4363    8.6310    7.0436 C   0  0  0  0  0  0  0  0  0  0  0  0
   -5.3998    9.4035    6.3798 C   0  0  0  0  0  0  0  0  0  0  0  0
   -6.5280    9.8662    7.0510 C   0  0  0  0  0  0  0  0  0  0  0  0
   -6.7081    9.5598    8.3978 C   0  0  0  0  0  0  0  0  0  0  0  0
   -5.7593    8.7826    9.0750 C   0  0  0  0  0  0  0  0  0  0  0  0
   -4.6385    8.3180    8.3958 C   0  0  0  0  0  0  0  0  0  0  0  0
   -0.7624    7.5238    5.0853 C   0  0  0  0  0  0  0  0  0  0  0  0
    0.4969    7.2497    4.5347 C   0  0  0  0  0  0  0  0  0  0  0  0
    1.6380    7.5775    5.2814 C   0  0  0  0  0  0  0  0  0  0  0  0
    1.0767    3.9082    8.1378 C   0  0  0  0  0  0  0  0  0  0  0  0
   -0.4430    3.4730   12.6166 C   0  0  0  0  0  0  0  0  0  0  0  0
   -1.0935    4.5035   12.6773 O   0  0  0  0  0  0  0  0  0  0  0  0
   -0.2760    2.6343   13.6752 O   0  0  0  0  0  0  0  0  0  0  0  0
    1.0199    1.1375   10.7409 H   0  0  0  0  0  0  0  0  0  0  0  0
   -0.4477    1.0362   11.4098 H   0  0  0  0  0  0  0  0  0  0  0  0
    1.3083    3.4013   11.3998 H   0  0  0  0  0  0  0  0  0  0  0  0
   -0.5877    4.4570   10.1056 H   0  0  0  0  0  0  0  0  0  0  0  0
   -1.4554    2.9498   10.1021 H   0  0  0  0  0  0  0  0  0  0  0  0
   -0.6806    1.0353    8.6649 H   0  0  0  0  0  0  0  0  0  0  0  0
    0.3440    0.4880    6.4924 H   0  0  0  0  0  0  0  0  0  0  0  0
    1.7803    2.0873    5.3407 H   0  0  0  0  0  0  0  0  0  0  0  0
    2.4663    5.4749    6.7809 H   0  0  0  0  0  0  0  0  0  0  0  0
    3.3241    6.1089    3.4577 H   0  0  0  0  0  0  0  0  0  0  0  0
    4.6194    5.8812    4.6500 H   0  0  0  0  0  0  0  0  0  0  0  0
    4.6296    7.7286    6.7313 H   0  0  0  0  0  0  0  0  0  0  0  0
    2.9943    9.6139    7.2532 H   0  0  0  0  0  0  0  0  0  0  0  0
    0.1586    9.1121    7.9664 H   0  0  0  0  0  0  0  0  0  0  0  0
   -3.4100    7.0517    6.0505 H   0  0  0  0  0  0  0  0  0  0  0  0
   -3.1706    8.6824    5.3402 H   0  0  0  0  0  0  0  0  0  0  0  0
   -5.2681    9.6532    5.3286 H   0  0  0  0  0  0  0  0  0  0  0  0
   -7.2618   10.4670    6.5212 H   0  0  0  0  0  0  0  0  0  0  0  0
   -7.5935    9.9183    8.9196 H   0  0  0  0  0  0  0  0  0  0  0  0
   -5.9146    8.5388   10.1224 H   0  0  0  0  0  0  0  0  0  0  0  0
   -3.9091    7.7102    8.9325 H   0  0  0  0  0  0  0  0  0  0  0  0
   -1.6292    7.1863    4.5254 H   0  0  0  0  0  0  0  0  0  0  0  0
    0.5751    6.7188    3.5899 H   0  0  0  0  0  0  0  0  0  0  0  0
    1.2596    4.8863    8.5881 H   0  0  0  0  0  0  0  0  0  0  0  0
    0.2616    1.8728   13.3421 H   0  0  0  0  0  0  0  0  0  0  0  0
  1  2  1  0  0  0  0
  1 34  1  0  0  0  0
  1 35  1  0  0  0  0
  2  3  1  0  0  0  0
  2 31  1  0  0  0  0
  2 36  1  6  0  0  0
  3  4  1  0  0  0  0
  3 37  1  0  0  0  0
  3 38  1  0  0  0  0
  4  5  2  0  0  0  0
  4 30  1  0  0  0  0
  5  6  1  0  0  0  0
  5 39  1  0  0  0  0
  6  7  2  0  0  0  0
  6 40  1  0  0  0  0
  7  8  1  0  0  0  0
  7 41  1  0  0  0  0
  8  9  1  0  0  0  0
  8 30  2  0  0  0  0
  9 10  1  0  0  0  0
  9 42  1  0  0  0  0
 10 11  2  0  0  0  0
 10 12  1  0  0  0  0
 12 13  1  0  0  0  0
 12 43  1  0  0  0  0
 12 44  1  0  0  0  0
 13 14  2  0  0  0  0
 13 29  1  0  0  0  0
 14 15  1  0  0  0  0
 14 45  1  0  0  0  0
 15 16  1  0  0  0  0
 15 46  1  0  0  0  0
 16 17  2  0  0  0  0
 16 29  1  0  0  0  0
 17 18  1  0  0  0  0
 17 47  1  0  0  0  0
 18 19  1  0  0  0  0
 18 27  2  0  0  0  0
 19 20  1  0  0  0  0
 20 21  1  0  0  0  0
 20 48  1  0  0  0  0
 20 49  1  0  0  0  0
 21 22  2  0  0  0  0
 21 26  1  0  0  0  0
 22 23  1  0  0  0  0
 22 50  1  0  0  0  0
 23 24  2  0  0  0  0
 23 51  1  0  0  0  0
 24 25  1  0  0  0  0
 24 52  1  0  0  0  0
 25 26  2  0  0  0  0
 25 53  1  0  0  0  0
 26 54  1  0  0  0  0
 27 28  1  0  0  0  0
 27 55  1  0  0  0  0
 28 29  2  0  0  0  0
 28 56  1  0  0  0  0
 30 57  1  0  0  0  0
 31 32  2  0  0  0  0
 31 33  1  0  0  0  0
 33 58  1  0  0  0  0
M  END
$$$$
