
 OpenBabel01122422393D

 45 48  0  0  0  0  0  0  0  0999 V2000
    1.3493    0.9294    0.3703 O   0  0  0  0  0  0  0  0  0  0  0  0
    2.4906    0.4940    0.2281 C   0  0  0  0  0  0  0  0  0  0  0  0
    3.1669   -0.2450    1.1884 N   0  0  0  0  0  0  0  0  0  0  0  0
    2.5201   -0.5169    2.3885 C   0  0  0  0  0  0  0  0  0  0  0  0
    1.6926   -1.5819    2.6675 C   0  0  0  0  0  0  0  0  0  0  0  0
    1.2345   -2.7832    1.9273 C   0  0  0  0  0  0  0  0  0  0  0  0
   -0.0378   -2.5666    1.1490 C   0  0  0  0  0  0  0  0  0  0  0  0
    0.0136   -2.2161   -0.2087 C   0  0  0  0  0  0  0  0  0  0  0  0
   -1.1606   -1.9828   -0.9247 C   0  0  0  0  0  0  0  0  0  0  0  0
   -2.3969   -2.1074   -0.2941 C   0  0  0  0  0  0  0  0  0  0  0  0
   -2.4600   -2.4643    1.0517 C   0  0  0  0  0  0  0  0  0  0  0  0
   -1.2867   -2.6904    1.7717 C   0  0  0  0  0  0  0  0  0  0  0  0
    1.3232   -1.5188    3.9809 O   0  0  0  0  0  0  0  0  0  0  0  0
    1.9256   -0.4240    4.5816 N   0  0  0  0  0  0  0  0  0  0  0  0
    2.6412    0.1571    3.6174 C   0  0  0  0  0  0  0  0  0  0  0  0
    3.2669    0.7534   -1.0363 C   0  0  0  0  0  0  0  0  0  0  0  0
    2.5635    1.2174   -2.0863 C   0  0  0  0  0  0  0  0  0  0  0  0
    3.1366    1.4463   -3.3381 N   0  0  0  0  0  0  0  0  0  0  0  0
    2.3308    1.8725   -4.4471 C   0  0  0  0  0  0  0  0  0  0  0  0
    2.7810    2.8829   -5.3101 C   0  0  0  0  0  0  0  0  0  0  0  0
    2.0046    3.2895   -6.4000 C   0  0  0  0  0  0  0  0  0  0  0  0
    0.7810    2.6736   -6.6577 C   0  0  0  0  0  0  0  0  0  0  0  0
    0.3222    1.6654   -5.8129 C   0  0  0  0  0  0  0  0  0  0  0  0
    1.0850    1.2840   -4.7104 C   0  0  0  0  0  0  0  0  0  0  0  0
    0.6273    0.2799   -3.9455 F   0  0  0  0  0  0  0  0  0  0  0  0
    4.4950    1.1727   -3.5723 C   0  0  0  0  0  0  0  0  0  0  0  0
    5.0884    1.2609   -4.6452 O   0  0  0  0  0  0  0  0  0  0  0  0
    5.2679    0.6815   -2.3990 C   0  0  0  0  0  0  0  0  0  0  0  0
    4.6806    0.4918   -1.2110 C   0  0  0  0  0  0  0  0  0  0  0  0
    4.1227    0.0617    1.3029 H   0  0  0  0  0  0  0  0  0  0  0  0
    1.0891   -3.6204    2.6288 H   0  0  0  0  0  0  0  0  0  0  0  0
    2.0287   -3.1224    1.2482 H   0  0  0  0  0  0  0  0  0  0  0  0
    0.9697   -2.1053   -0.7151 H   0  0  0  0  0  0  0  0  0  0  0  0
   -1.1080   -1.6909   -1.9703 H   0  0  0  0  0  0  0  0  0  0  0  0
   -3.3103   -1.9147   -0.8498 H   0  0  0  0  0  0  0  0  0  0  0  0
   -3.4240   -2.5546    1.5447 H   0  0  0  0  0  0  0  0  0  0  0  0
   -1.3502   -2.9527    2.8254 H   0  0  0  0  0  0  0  0  0  0  0  0
    3.2010    1.0498    3.8520 H   0  0  0  0  0  0  0  0  0  0  0  0
    1.5027    1.4452   -1.9954 H   0  0  0  0  0  0  0  0  0  0  0  0
    3.7321    3.3799   -5.1313 H   0  0  0  0  0  0  0  0  0  0  0  0
    2.3633    4.0829   -7.0519 H   0  0  0  0  0  0  0  0  0  0  0  0
    0.1908    2.9739   -7.5199 H   0  0  0  0  0  0  0  0  0  0  0  0
   -0.6177    1.1606   -6.0127 H   0  0  0  0  0  0  0  0  0  0  0  0
    6.3167    0.4746   -2.5751 H   0  0  0  0  0  0  0  0  0  0  0  0
    5.2868    0.1337   -0.3890 H   0  0  0  0  0  0  0  0  0  0  0  0
  1  2  2  0  0  0  0
  2  3  1  0  0  0  0
  2 16  1  0  0  0  0
  3  4  1  0  0  0  0
  3 30  1  0  0  0  0
  4  5  2  0  0  0  0
  4 15  1  0  0  0  0
  5  6  1  0  0  0  0
  5 13  1  0  0  0  0
  6  7  1  0  0  0  0
  6 31  1  0  0  0  0
  6 32  1  0  0  0  0
  7  8  2  0  0  0  0
  7 12  1  0  0  0  0
  8  9  1  0  0  0  0
  8 33  1  0  0  0  0
  9 10  2  0  0  0  0
  9 34  1  0  0  0  0
 10 11  1  0  0  0  0
 10 35  1  0  0  0  0
 11 12  2  0  0  0  0
 11 36  1  0  0  0  0
 12 37  1  0  0  0  0
 13 14  1  0  0  0  0
 14 15  2  0  0  0  0
 15 38  1  0  0  0  0
 16 17  2  0  0  0  0
 16 29  1  0  0  0  0
 17 18  1  0  0  0  0
 17 39  1  0  0  0  0
 18 19  1  0  0  0  0
 18 26  1  0  0  0  0
 19 20  2  0  0  0  0
 19 24  1  0  0  0  0
 20 21  1  0  0  0  0
 20 40  1  0  0  0  0
 21 22  2  0  0  0  0
 21 41  1  0  0  0  0
 22 23  1  0  0  0  0
 22 42  1  0  0  0  0
 23 24  2  0  0  0  0
 23 43  1  0  0  0  0
 24 25  1  0  0  0  0
 26 27  2  0  0  0  0
 26 28  1  0  0  0  0
 28 29  2  0  0  0  0
 28 44  1  0  0  0  0
 29 45  1  0  0  0  0
M  END
$$$$
