
 OpenBabel01122422393D

 46 49  0  0  0  0  0  0  0  0999 V2000
    2.5763   -0.2845    1.0955 O   0  0  0  0  0  0  0  0  0  0  0  0
    2.1584   -0.0033   -0.0259 C   0  0  0  0  0  0  0  0  0  0  0  0
    0.6673    0.1519   -0.2468 C   0  0  0  0  0  0  0  0  0  0  0  0
    0.0106   -1.0964   -0.7828 C   0  0  0  0  0  0  0  0  0  0  0  0
    0.1027   -2.3131   -0.0943 C   0  0  0  0  0  0  0  0  0  0  0  0
   -0.5254   -3.4613   -0.5870 C   0  0  0  0  0  0  0  0  0  0  0  0
   -1.2645   -3.4149   -1.7790 C   0  0  0  0  0  0  0  0  0  0  0  0
   -1.9001   -4.5452   -2.3054 C   0  0  0  0  0  0  0  0  0  0  0  0
   -2.6131   -4.4194   -3.4876 C   0  0  0  0  0  0  0  0  0  0  0  0
   -2.7414   -3.2643   -4.1720 N   0  0  0  0  0  0  0  0  0  0  0  0
   -2.1212   -2.1826   -3.6473 C   0  0  0  0  0  0  0  0  0  0  0  0
   -1.3719   -2.1920   -2.4684 C   0  0  0  0  0  0  0  0  0  0  0  0
   -0.7384   -1.0436   -1.9658 C   0  0  0  0  0  0  0  0  0  0  0  0
    2.9327    0.2374   -1.1571 N   0  0  0  0  0  0  0  0  0  0  0  0
    4.3334    0.0603   -1.2314 C   0  0  0  0  0  0  0  0  0  0  0  0
    5.0236   -0.7353   -0.3170 C   0  0  0  0  0  0  0  0  0  0  0  0
    6.4107   -0.8691   -0.3413 C   0  0  0  0  0  0  0  0  0  0  0  0
    7.1004   -1.6780    0.5926 N   0  0  0  0  0  0  0  0  0  0  0  0
    6.5174   -2.6865    1.3511 C   0  0  0  0  0  0  0  0  0  0  0  0
    5.3591   -3.0833    1.2475 O   0  0  0  0  0  0  0  0  0  0  0  0
    7.4219   -3.3828    2.3048 C   0  0  0  0  0  0  0  0  0  0  0  0
    8.7072   -2.9312    2.3617 N   0  0  0  0  0  0  0  0  0  0  0  0
    9.5049   -3.6156    3.1959 C   0  0  0  0  0  0  0  0  0  0  0  0
    9.1542   -4.6815    3.9358 N   0  0  0  0  0  0  0  0  0  0  0  0
    7.8674   -5.0790    3.8325 C   0  0  0  0  0  0  0  0  0  0  0  0
    6.9493   -4.4521    3.0335 C   0  0  0  0  0  0  0  0  0  0  0  0
    5.6879   -4.9028    2.9892 F   0  0  0  0  0  0  0  0  0  0  0  0
    7.1314   -0.1683   -1.3089 C   0  0  0  0  0  0  0  0  0  0  0  0
    6.4531    0.5854   -2.2780 C   0  0  0  0  0  0  0  0  0  0  0  0
    5.0565    0.6867   -2.2483 C   0  0  0  0  0  0  0  0  0  0  0  0
    0.4917    1.0106   -0.9042 H   0  0  0  0  0  0  0  0  0  0  0  0
    0.2067    0.4071    0.7159 H   0  0  0  0  0  0  0  0  0  0  0  0
    0.6695   -2.3821    0.8354 H   0  0  0  0  0  0  0  0  0  0  0  0
   -0.4293   -4.3921   -0.0318 H   0  0  0  0  0  0  0  0  0  0  0  0
   -1.8426   -5.5085   -1.8100 H   0  0  0  0  0  0  0  0  0  0  0  0
   -3.1162   -5.2750   -3.9292 H   0  0  0  0  0  0  0  0  0  0  0  0
   -2.2465   -1.2704   -4.2241 H   0  0  0  0  0  0  0  0  0  0  0  0
   -0.8345   -0.1007   -2.5003 H   0  0  0  0  0  0  0  0  0  0  0  0
    2.4836    0.6750   -1.9511 H   0  0  0  0  0  0  0  0  0  0  0  0
    4.4557   -1.2633    0.4394 H   0  0  0  0  0  0  0  0  0  0  0  0
    8.1050   -1.5836    0.6721 H   0  0  0  0  0  0  0  0  0  0  0  0
   10.5358   -3.2856    3.2827 H   0  0  0  0  0  0  0  0  0  0  0  0
    7.5842   -5.9474    4.4210 H   0  0  0  0  0  0  0  0  0  0  0  0
    8.2180   -0.2311   -1.3521 H   0  0  0  0  0  0  0  0  0  0  0  0
    7.0157    1.0959   -3.0536 H   0  0  0  0  0  0  0  0  0  0  0  0
    4.5574    1.2880   -3.0016 H   0  0  0  0  0  0  0  0  0  0  0  0
  1  2  2  0  0  0  0
  2  3  1  0  0  0  0
  2 14  1  0  0  0  0
  3  4  1  0  0  0  0
  3 31  1  0  0  0  0
  3 32  1  0  0  0  0
  4  5  2  0  0  0  0
  4 13  1  0  0  0  0
  5  6  1  0  0  0  0
  5 33  1  0  0  0  0
  6  7  2  0  0  0  0
  6 34  1  0  0  0  0
  7  8  1  0  0  0  0
  7 12  1  0  0  0  0
  8  9  2  0  0  0  0
  8 35  1  0  0  0  0
  9 10  1  0  0  0  0
  9 36  1  0  0  0  0
 10 11  2  0  0  0  0
 11 12  1  0  0  0  0
 11 37  1  0  0  0  0
 12 13  2  0  0  0  0
 13 38  1  0  0  0  0
 14 15  1  0  0  0  0
 14 39  1  0  0  0  0
 15 16  2  0  0  0  0
 15 30  1  0  0  0  0
 16 17  1  0  0  0  0
 16 40  1  0  0  0  0
 17 18  1  0  0  0  0
 17 28  2  0  0  0  0
 18 19  1  0  0  0  0
 18 41  1  0  0  0  0
 19 20  2  0  0  0  0
 19 21  1  0  0  0  0
 21 22  2  0  0  0  0
 21 26  1  0  0  0  0
 22 23  1  0  0  0  0
 23 24  2  0  0  0  0
 23 42  1  0  0  0  0
 24 25  1  0  0  0  0
 25 26  2  0  0  0  0
 25 43  1  0  0  0  0
 26 27  1  0  0  0  0
 28 29  1  0  0  0  0
 28 44  1  0  0  0  0
 29 30  2  0  0  0  0
 29 45  1  0  0  0  0
 30 46  1  0  0  0  0
M  END
$$$$
