
 OpenBabel01122422393D

 47 50  0  0  1  0  0  0  0  0999 V2000
    1.2591   -0.9211   -0.6340 N   0  0  0  0  0  0  0  0  0  0  0  0
    2.3353   -0.5413   -0.3961 C   0  0  0  0  0  0  0  0  0  0  0  0
    3.7046   -0.0596   -0.0926 C   0  0  3  0  0  0  0  0  0  0  0  0
    4.6698   -1.1821    0.2870 C   0  0  0  0  0  0  0  0  0  0  0  0
    4.5570   -2.4787   -0.2462 C   0  0  0  0  0  0  0  0  0  0  0  0
    5.4241   -3.4953    0.1576 C   0  0  0  0  0  0  0  0  0  0  0  0
    6.4249   -3.2313    1.0885 C   0  0  0  0  0  0  0  0  0  0  0  0
    6.5672   -1.9480    1.6105 C   0  0  0  0  0  0  0  0  0  0  0  0
    5.7005   -0.9284    1.2102 C   0  0  0  0  0  0  0  0  0  0  0  0
    4.1912    0.8790   -1.1918 C   0  0  0  0  0  0  0  0  0  0  0  0
    3.8313    2.2370   -1.1215 C   0  0  0  0  0  0  0  0  0  0  0  0
    4.1730    3.1332   -2.1341 C   0  0  0  0  0  0  0  0  0  0  0  0
    4.8686    2.6883   -3.2521 C   0  0  0  0  0  0  0  0  0  0  0  0
    5.2045    3.5232   -4.3219 N   0  0  0  0  0  0  0  0  0  0  0  0
    5.1733    4.8933   -4.4032 C   0  0  0  0  0  0  0  0  0  0  0  0
    4.9016    5.6671   -3.4883 O   0  0  0  0  0  0  0  0  0  0  0  0
    5.5616    5.4235   -5.6136 N   0  0  0  0  0  0  0  0  0  0  0  0
    5.7980    4.7246   -6.7759 C   0  0  0  0  0  0  0  0  0  0  0  0
    5.5130    3.4296   -6.9172 N   0  0  0  0  0  0  0  0  0  0  0  0
    5.8773    3.1677   -8.1919 N   0  0  0  0  0  0  0  0  0  0  0  0
    5.6708    1.8905   -8.7436 C   0  0  0  0  0  0  0  0  0  0  0  0
    4.9183    0.9248   -8.0610 C   0  0  0  0  0  0  0  0  0  0  0  0
    4.7323   -0.3248   -8.6424 C   0  0  0  0  0  0  0  0  0  0  0  0
    5.3152   -0.5641   -9.8758 C   0  0  0  0  0  0  0  0  0  0  0  0
    6.0513    0.3476  -10.5526 N   0  0  0  0  0  0  0  0  0  0  0  0
    6.2101    1.5633   -9.9756 C   0  0  0  0  0  0  0  0  0  0  0  0
    6.4572    4.1960   -8.8622 N   0  0  0  0  0  0  0  0  0  0  0  0
    6.3675    5.1917   -7.9728 C   0  0  0  0  0  0  0  0  0  0  0  0
    5.2256    1.3373   -3.3433 C   0  0  0  0  0  0  0  0  0  0  0  0
    4.8990    0.4398   -2.3207 C   0  0  0  0  0  0  0  0  0  0  0  0
    3.6025    0.5487    0.8203 H   0  0  0  0  0  0  0  0  0  0  0  0
    3.7830   -2.7226   -0.9725 H   0  0  0  0  0  0  0  0  0  0  0  0
    5.3102   -4.4970   -0.2496 H   0  0  0  0  0  0  0  0  0  0  0  0
    7.0931   -4.0270    1.4076 H   0  0  0  0  0  0  0  0  0  0  0  0
    7.3502   -1.7430    2.3367 H   0  0  0  0  0  0  0  0  0  0  0  0
    5.8291    0.0647    1.6376 H   0  0  0  0  0  0  0  0  0  0  0  0
    3.2513    2.6144   -0.2809 H   0  0  0  0  0  0  0  0  0  0  0  0
    3.8457    4.1642   -2.0480 H   0  0  0  0  0  0  0  0  0  0  0  0
    5.5304    3.0654   -5.1689 H   0  0  0  0  0  0  0  0  0  0  0  0
    5.6723    6.4276   -5.6130 H   0  0  0  0  0  0  0  0  0  0  0  0
    4.4574    1.1354   -7.0980 H   0  0  0  0  0  0  0  0  0  0  0  0
    4.1424   -1.0900   -8.1486 H   0  0  0  0  0  0  0  0  0  0  0  0
    5.2002   -1.5245  -10.3705 H   0  0  0  0  0  0  0  0  0  0  0  0
    6.8125    2.2632  -10.5490 H   0  0  0  0  0  0  0  0  0  0  0  0
    6.7405    6.1748   -8.2243 H   0  0  0  0  0  0  0  0  0  0  0  0
    5.7759    0.9684   -4.2079 H   0  0  0  0  0  0  0  0  0  0  0  0
    5.1976   -0.6005   -2.4288 H   0  0  0  0  0  0  0  0  0  0  0  0
  1  2  3  0  0  0  0
  2  3  1  0  0  0  0
  3  4  1  0  0  0  0
  3 10  1  0  0  0  0
  3 31  1  0  0  0  0
  4  5  2  0  0  0  0
  4  9  1  0  0  0  0
  5  6  1  0  0  0  0
  5 32  1  0  0  0  0
  6  7  2  0  0  0  0
  6 33  1  0  0  0  0
  7  8  1  0  0  0  0
  7 34  1  0  0  0  0
  8  9  2  0  0  0  0
  8 35  1  0  0  0  0
  9 36  1  0  0  0  0
 10 11  2  0  0  0  0
 10 30  1  0  0  0  0
 11 12  1  0  0  0  0
 11 37  1  0  0  0  0
 12 13  2  0  0  0  0
 12 38  1  0  0  0  0
 13 14  1  0  0  0  0
 13 29  1  0  0  0  0
 14 15  1  0  0  0  0
 14 39  1  0  0  0  0
 15 16  2  0  0  0  0
 15 17  1  0  0  0  0
 17 18  1  0  0  0  0
 17 40  1  0  0  0  0
 18 19  2  0  0  0  0
 18 28  1  0  0  0  0
 19 20  1  0  0  0  0
 20 21  1  0  0  0  0
 20 27  1  0  0  0  0
 21 22  2  0  0  0  0
 21 26  1  0  0  0  0
 22 23  1  0  0  0  0
 22 41  1  0  0  0  0
 23 24  2  0  0  0  0
 23 42  1  0  0  0  0
 24 25  1  0  0  0  0
 24 43  1  0  0  0  0
 25 26  2  0  0  0  0
 26 44  1  0  0  0  0
 27 28  2  0  0  0  0
 28 45  1  0  0  0  0
 29 30  2  0  0  0  0
 29 46  1  0  0  0  0
 30 47  1  0  0  0  0
M  END
$$$$
