
 OpenBabel01122422393D

 40 43  0  0  0  0  0  0  0  0999 V2000
    0.9446    0.1268   -0.1282 N   0  0  0  0  0  0  0  0  0  0  0  0
    2.3009    0.1316   -0.0715 C   0  0  0  0  0  0  0  0  0  0  0  0
    3.1540    1.2024   -0.1000 C   0  0  0  0  0  0  0  0  0  0  0  0
    4.4556    0.6645    0.0430 C   0  0  0  0  0  0  0  0  0  0  0  0
    5.6976    1.4439   -0.0174 C   0  0  0  0  0  0  0  0  0  0  0  0
    5.6458    2.6667   -0.1349 O   0  0  0  0  0  0  0  0  0  0  0  0
    6.8568    0.6867    0.0131 N   0  0  0  0  0  0  0  0  0  0  0  0
    8.1731    1.1982    0.0300 C   0  0  0  0  0  0  0  0  0  0  0  0
    8.4554    2.5316    0.3062 C   0  0  0  0  0  0  0  0  0  0  0  0
    9.7705    2.9947    0.3707 C   0  0  0  0  0  0  0  0  0  0  0  0
   10.0219    4.3341    0.7171 C   0  0  0  0  0  0  0  0  0  0  0  0
   11.3256    4.7959    0.8222 C   0  0  0  0  0  0  0  0  0  0  0  0
   12.3667    3.9243    0.5428 C   0  0  0  0  0  0  0  0  0  0  0  0
   13.6273    4.3691    0.6461 F   0  0  0  0  0  0  0  0  0  0  0  0
   12.1186    2.6010    0.1790 C   0  0  0  0  0  0  0  0  0  0  0  0
   13.1670    1.8025   -0.0881 F   0  0  0  0  0  0  0  0  0  0  0  0
   10.8210    2.0899    0.1056 C   0  0  0  0  0  0  0  0  0  0  0  0
   10.5609    0.7907   -0.1803 N   0  0  0  0  0  0  0  0  0  0  0  0
    9.2644    0.3745   -0.1943 C   0  0  0  0  0  0  0  0  0  0  0  0
    4.4234   -0.6640    0.2509 N   0  0  0  0  0  0  0  0  0  0  0  0
    3.1095   -0.9967    0.0710 N   0  0  0  0  0  0  0  0  0  0  0  0
    2.7340   -2.3608   -0.0100 C   0  0  0  0  0  0  0  0  0  0  0  0
    3.4262   -3.3108    0.7546 C   0  0  0  0  0  0  0  0  0  0  0  0
    3.0824   -4.6589    0.6527 C   0  0  0  0  0  0  0  0  0  0  0  0
    2.0852   -5.0494   -0.2356 C   0  0  0  0  0  0  0  0  0  0  0  0
    1.7855   -6.3482   -0.3594 F   0  0  0  0  0  0  0  0  0  0  0  0
    1.4032   -4.1157   -1.0089 C   0  0  0  0  0  0  0  0  0  0  0  0
    1.7170   -2.7629   -0.8891 C   0  0  0  0  0  0  0  0  0  0  0  0
    0.4342    0.9994    0.0012 H   0  0  0  0  0  0  0  0  0  0  0  0
    0.4118   -0.6782    0.1965 H   0  0  0  0  0  0  0  0  0  0  0  0
    2.8951    2.2455   -0.2199 H   0  0  0  0  0  0  0  0  0  0  0  0
    6.7135   -0.3205   -0.0238 H   0  0  0  0  0  0  0  0  0  0  0  0
    7.6590    3.2364    0.5230 H   0  0  0  0  0  0  0  0  0  0  0  0
    9.1966    5.0136    0.9277 H   0  0  0  0  0  0  0  0  0  0  0  0
   11.5321    5.8180    1.1231 H   0  0  0  0  0  0  0  0  0  0  0  0
    9.1452   -0.6848   -0.4117 H   0  0  0  0  0  0  0  0  0  0  0  0
    4.2058   -3.0074    1.4507 H   0  0  0  0  0  0  0  0  0  0  0  0
    3.5898   -5.4067    1.2537 H   0  0  0  0  0  0  0  0  0  0  0  0
    0.6478   -4.4489   -1.7136 H   0  0  0  0  0  0  0  0  0  0  0  0
    1.2111   -2.0494   -1.5358 H   0  0  0  0  0  0  0  0  0  0  0  0
  1  2  1  0  0  0  0
  1 29  1  0  0  0  0
  1 30  1  0  0  0  0
  2  3  2  0  0  0  0
  2 21  1  0  0  0  0
  3  4  1  0  0  0  0
  3 31  1  0  0  0  0
  4  5  1  0  0  0  0
  4 20  2  0  0  0  0
  5  6  2  0  0  0  0
  5  7  1  0  0  0  0
  7  8  1  0  0  0  0
  7 32  1  0  0  0  0
  8  9  2  0  0  0  0
  8 19  1  0  0  0  0
  9 10  1  0  0  0  0
  9 33  1  0  0  0  0
 10 11  2  0  0  0  0
 10 17  1  0  0  0  0
 11 12  1  0  0  0  0
 11 34  1  0  0  0  0
 12 13  2  0  0  0  0
 12 35  1  0  0  0  0
 13 14  1  0  0  0  0
 13 15  1  0  0  0  0
 15 16  1  0  0  0  0
 15 17  2  0  0  0  0
 17 18  1  0  0  0  0
 18 19  2  0  0  0  0
 19 36  1  0  0  0  0
 20 21  1  0  0  0  0
 21 22  1  0  0  0  0
 22 23  2  0  0  0  0
 22 28  1  0  0  0  0
 23 24  1  0  0  0  0
 23 37  1  0  0  0  0
 24 25  2  0  0  0  0
 24 38  1  0  0  0  0
 25 26  1  0  0  0  0
 25 27  1  0  0  0  0
 27 28  2  0  0  0  0
 27 39  1  0  0  0  0
 28 40  1  0  0  0  0
M  END
$$$$
