
 OpenBabel01122422393D

 43 46  0  0  0  0  0  0  0  0999 V2000
    4.4584   -0.0769   -4.6570 N   0  0  0  0  0  0  0  0  0  0  0  0
    4.9363    1.1297   -4.2410 C   0  0  0  0  0  0  0  0  0  0  0  0
    5.4853    1.8732   -5.0455 O   0  0  0  0  0  0  0  0  0  0  0  0
    4.7429    1.4976   -2.8161 C   0  0  0  0  0  0  0  0  0  0  0  0
    4.5914    2.8712   -2.5535 C   0  0  0  0  0  0  0  0  0  0  0  0
    4.5716    3.7735   -3.5463 F   0  0  0  0  0  0  0  0  0  0  0  0
    4.3970    3.3574   -1.2634 C   0  0  0  0  0  0  0  0  0  0  0  0
    4.3896    2.4760   -0.1976 C   0  0  0  0  0  0  0  0  0  0  0  0
    4.5579    1.1107   -0.4340 C   0  0  0  0  0  0  0  0  0  0  0  0
    4.6879    0.5832   -1.7418 C   0  0  0  0  0  0  0  0  0  0  0  0
    4.7430   -0.7911   -1.9855 O   0  0  0  0  0  0  0  0  0  0  0  0
    4.3404   -1.5745   -0.8492 C   0  0  0  0  0  0  0  0  0  0  0  0
    3.8735   -2.9864   -1.1936 C   0  0  0  0  0  0  0  0  0  0  0  0
    2.5527   -3.2129   -1.1619 N   0  0  0  0  0  0  0  0  0  0  0  0
    2.3835   -3.6423    0.1387 C   0  0  0  0  0  0  0  0  0  0  0  0
    1.2671   -3.5897    0.9812 C   0  0  0  0  0  0  0  0  0  0  0  0
    1.4238   -3.9827    2.3194 C   0  0  0  0  0  0  0  0  0  0  0  0
    2.6485   -4.4577    2.7873 C   0  0  0  0  0  0  0  0  0  0  0  0
    2.7570   -4.8264    4.0709 F   0  0  0  0  0  0  0  0  0  0  0  0
    3.7669   -4.5588    1.9629 C   0  0  0  0  0  0  0  0  0  0  0  0
    3.5931   -4.1247    0.6434 C   0  0  0  0  0  0  0  0  0  0  0  0
    4.3950   -4.0946   -0.4910 N   0  0  0  0  0  0  0  0  0  0  0  0
    5.1775   -5.1762   -0.9877 C   0  0  0  0  0  0  0  0  0  0  0  0
    5.0704   -6.4450   -0.3798 C   0  0  0  0  0  0  0  0  0  0  0  0
    5.6815   -7.5639   -0.9485 C   0  0  0  0  0  0  0  0  0  0  0  0
    6.4226   -7.4268   -2.1147 C   0  0  0  0  0  0  0  0  0  0  0  0
    6.5644   -6.1678   -2.7033 C   0  0  0  0  0  0  0  0  0  0  0  0
    5.9393   -5.0396   -2.1501 C   0  0  0  0  0  0  0  0  0  0  0  0
    4.5352   -0.3029   -5.6372 H   0  0  0  0  0  0  0  0  0  0  0  0
    4.0389   -0.7438   -4.0208 H   0  0  0  0  0  0  0  0  0  0  0  0
    4.2520    4.4221   -1.1069 H   0  0  0  0  0  0  0  0  0  0  0  0
    4.2411    2.8407    0.8165 H   0  0  0  0  0  0  0  0  0  0  0  0
    4.5628    0.4828    0.4531 H   0  0  0  0  0  0  0  0  0  0  0  0
    3.4403   -1.1071   -0.4194 H   0  0  0  0  0  0  0  0  0  0  0  0
    5.1350   -1.6012   -0.0961 H   0  0  0  0  0  0  0  0  0  0  0  0
    0.3266   -3.1953    0.6151 H   0  0  0  0  0  0  0  0  0  0  0  0
    0.5884   -3.9058    3.0090 H   0  0  0  0  0  0  0  0  0  0  0  0
    4.7115   -4.9365    2.3380 H   0  0  0  0  0  0  0  0  0  0  0  0
    4.4501   -6.6178    0.4951 H   0  0  0  0  0  0  0  0  0  0  0  0
    5.5448   -8.5441   -0.4974 H   0  0  0  0  0  0  0  0  0  0  0  0
    6.8743   -8.3029   -2.5745 H   0  0  0  0  0  0  0  0  0  0  0  0
    7.1439   -6.0718   -3.6189 H   0  0  0  0  0  0  0  0  0  0  0  0
    6.0505   -4.0835   -2.6537 H   0  0  0  0  0  0  0  0  0  0  0  0
  1  2  1  0  0  0  0
  1 29  1  0  0  0  0
  1 30  1  0  0  0  0
  2  3  2  0  0  0  0
  2  4  1  0  0  0  0
  4  5  2  0  0  0  0
  4 10  1  0  0  0  0
  5  6  1  0  0  0  0
  5  7  1  0  0  0  0
  7  8  2  0  0  0  0
  7 31  1  0  0  0  0
  8  9  1  0  0  0  0
  8 32  1  0  0  0  0
  9 10  2  0  0  0  0
  9 33  1  0  0  0  0
 10 11  1  0  0  0  0
 11 12  1  0  0  0  0
 12 13  1  0  0  0  0
 12 34  1  0  0  0  0
 12 35  1  0  0  0  0
 13 14  2  0  0  0  0
 13 22  1  0  0  0  0
 14 15  1  0  0  0  0
 15 16  2  0  0  0  0
 15 21  1  0  0  0  0
 16 17  1  0  0  0  0
 16 36  1  0  0  0  0
 17 18  2  0  0  0  0
 17 37  1  0  0  0  0
 18 19  1  0  0  0  0
 18 20  1  0  0  0  0
 20 21  2  0  0  0  0
 20 38  1  0  0  0  0
 21 22  1  0  0  0  0
 22 23  1  0  0  0  0
 23 24  2  0  0  0  0
 23 28  1  0  0  0  0
 24 25  1  0  0  0  0
 24 39  1  0  0  0  0
 25 26  2  0  0  0  0
 25 40  1  0  0  0  0
 26 27  1  0  0  0  0
 26 41  1  0  0  0  0
 27 28  2  0  0  0  0
 27 42  1  0  0  0  0
 28 43  1  0  0  0  0
M  END
$$$$
