
 OpenBabel01122422393D

 46 49  0  0  0  0  0  0  0  0999 V2000
    2.7552    0.9821    0.3961 O   0  0  0  0  0  0  0  0  0  0  0  0
    2.2160    0.0189   -0.1404 C   0  0  0  0  0  0  0  0  0  0  0  0
    0.7058   -0.1025   -0.2260 C   0  0  0  0  0  0  0  0  0  0  0  0
    0.2691   -0.1747   -1.6335 C   0  0  0  0  0  0  0  0  0  0  0  0
    0.5932   -1.0510   -2.5615 N   0  0  0  0  0  0  0  0  0  0  0  0
   -0.1754   -0.7637   -3.6658 N   0  0  0  0  0  0  0  0  0  0  0  0
   -0.9354    0.2641   -3.3401 C   0  0  0  0  0  0  0  0  0  0  0  0
   -2.0040    0.9201   -4.0939 C   0  0  0  0  0  0  0  0  0  0  0  0
   -2.3453    0.4696   -5.3778 C   0  0  0  0  0  0  0  0  0  0  0  0
   -3.4253    1.0323   -6.0699 C   0  0  0  0  0  0  0  0  0  0  0  0
   -4.1698    2.0552   -5.4866 C   0  0  0  0  0  0  0  0  0  0  0  0
   -3.8253    2.5317   -4.2251 C   0  0  0  0  0  0  0  0  0  0  0  0
   -2.7471    1.9704   -3.5343 C   0  0  0  0  0  0  0  0  0  0  0  0
   -0.7032    0.7005   -2.0553 O   0  0  0  0  0  0  0  0  0  0  0  0
    2.9191   -1.0641   -0.6238 N   0  0  0  0  0  0  0  0  0  0  0  0
    4.3632   -1.1277   -0.6214 C   0  0  0  0  0  0  0  0  0  0  0  0
    4.8402   -2.3575    0.1035 C   0  0  0  0  0  0  0  0  0  0  0  0
    5.1321   -2.3098    1.4705 C   0  0  0  0  0  0  0  0  0  0  0  0
    5.6054   -3.4456    2.1427 C   0  0  0  0  0  0  0  0  0  0  0  0
    5.8096   -4.6649    1.4699 C   0  0  0  0  0  0  0  0  0  0  0  0
    6.3920   -5.8386    2.1544 C   0  0  0  0  0  0  0  0  0  0  0  0
    7.3291   -5.7142    3.1918 C   0  0  0  0  0  0  0  0  0  0  0  0
    7.9019   -6.8441    3.7741 C   0  0  0  0  0  0  0  0  0  0  0  0
    7.5244   -8.0880    3.3041 C   0  0  0  0  0  0  0  0  0  0  0  0
    6.6196   -8.2710    2.3269 N   0  0  0  0  0  0  0  0  0  0  0  0
    6.0810   -7.1502    1.7821 C   0  0  0  0  0  0  0  0  0  0  0  0
    5.4671   -4.6945    0.1059 C   0  0  0  0  0  0  0  0  0  0  0  0
    5.6190   -5.8165   -0.6141 F   0  0  0  0  0  0  0  0  0  0  0  0
    4.9860   -3.5746   -0.5675 C   0  0  0  0  0  0  0  0  0  0  0  0
    0.2530    0.7525    0.2857 H   0  0  0  0  0  0  0  0  0  0  0  0
    0.3963   -1.0084    0.3065 H   0  0  0  0  0  0  0  0  0  0  0  0
   -1.7829   -0.3342   -5.8491 H   0  0  0  0  0  0  0  0  0  0  0  0
   -3.6952    0.6612   -7.0553 H   0  0  0  0  0  0  0  0  0  0  0  0
   -5.0249    2.4768   -6.0117 H   0  0  0  0  0  0  0  0  0  0  0  0
   -4.4036    3.3313   -3.7666 H   0  0  0  0  0  0  0  0  0  0  0  0
   -2.5058    2.3540   -2.5466 H   0  0  0  0  0  0  0  0  0  0  0  0
    2.4248   -1.7670   -1.1613 H   0  0  0  0  0  0  0  0  0  0  0  0
    4.8064   -0.2305   -0.1756 H   0  0  0  0  0  0  0  0  0  0  0  0
    4.6962   -1.1590   -1.6658 H   0  0  0  0  0  0  0  0  0  0  0  0
    5.0066   -1.3804    2.0238 H   0  0  0  0  0  0  0  0  0  0  0  0
    5.8169   -3.3565    3.2070 H   0  0  0  0  0  0  0  0  0  0  0  0
    7.6492   -4.7366    3.5456 H   0  0  0  0  0  0  0  0  0  0  0  0
    8.6374   -6.7529    4.5654 H   0  0  0  0  0  0  0  0  0  0  0  0
    7.9535   -8.9982    3.7121 H   0  0  0  0  0  0  0  0  0  0  0  0
    5.3579   -7.3607    0.9980 H   0  0  0  0  0  0  0  0  0  0  0  0
    4.7555   -3.6682   -1.6258 H   0  0  0  0  0  0  0  0  0  0  0  0
  1  2  2  0  0  0  0
  2  3  1  0  0  0  0
  2 15  1  0  0  0  0
  3  4  1  0  0  0  0
  3 30  1  0  0  0  0
  3 31  1  0  0  0  0
  4  5  2  0  0  0  0
  4 14  1  0  0  0  0
  5  6  1  0  0  0  0
  6  7  2  0  0  0  0
  7  8  1  0  0  0  0
  7 14  1  0  0  0  0
  8  9  2  0  0  0  0
  8 13  1  0  0  0  0
  9 10  1  0  0  0  0
  9 32  1  0  0  0  0
 10 11  2  0  0  0  0
 10 33  1  0  0  0  0
 11 12  1  0  0  0  0
 11 34  1  0  0  0  0
 12 13  2  0  0  0  0
 12 35  1  0  0  0  0
 13 36  1  0  0  0  0
 15 16  1  0  0  0  0
 15 37  1  0  0  0  0
 16 17  1  0  0  0  0
 16 38  1  0  0  0  0
 16 39  1  0  0  0  0
 17 18  2  0  0  0  0
 17 29  1  0  0  0  0
 18 19  1  0  0  0  0
 18 40  1  0  0  0  0
 19 20  2  0  0  0  0
 19 41  1  0  0  0  0
 20 21  1  0  0  0  0
 20 27  1  0  0  0  0
 21 22  2  0  0  0  0
 21 26  1  0  0  0  0
 22 23  1  0  0  0  0
 22 42  1  0  0  0  0
 23 24  2  0  0  0  0
 23 43  1  0  0  0  0
 24 25  1  0  0  0  0
 24 44  1  0  0  0  0
 25 26  2  0  0  0  0
 26 45  1  0  0  0  0
 27 28  1  0  0  0  0
 27 29  2  0  0  0  0
 29 46  1  0  0  0  0
M  END
$$$$
