
 OpenBabel01122422393D

 49 52  0  0  0  0  0  0  0  0999 V2000
    5.9064    1.5249    6.6507 C   0  0  0  0  0  0  0  0  0  0  0  0
    6.5294    1.4902    5.3512 N   0  0  0  0  0  0  0  0  0  0  0  0
    5.9566    2.1055    4.2579 C   0  0  0  0  0  0  0  0  0  0  0  0
    4.9166    2.7583    4.3161 O   0  0  0  0  0  0  0  0  0  0  0  0
    6.6912    1.9657    2.9662 C   0  0  0  0  0  0  0  0  0  0  0  0
    7.4990    0.8532    2.6973 C   0  0  0  0  0  0  0  0  0  0  0  0
    8.1830    0.7410    1.4779 C   0  0  0  0  0  0  0  0  0  0  0  0
    8.0613    1.7273    0.4947 C   0  0  0  0  0  0  0  0  0  0  0  0
    8.7749    1.6736   -0.8433 C   0  0  0  0  0  0  0  0  0  0  0  0
    9.6251    0.4363   -1.1771 C   0  0  0  0  0  0  0  0  0  0  0  0
    9.1559   -0.6819   -1.3179 O   0  0  0  0  0  0  0  0  0  0  0  0
   10.9589    0.7654   -1.3328 N   0  0  0  0  0  0  0  0  0  0  0  0
   11.9388   -0.2261   -1.4303 C   0  0  0  0  0  0  0  0  0  0  0  0
   12.8603   -0.1834   -0.4717 N   0  0  0  0  0  0  0  0  0  0  0  0
   13.9062    0.4594   -1.0824 C   0  0  0  0  0  0  0  0  0  0  0  0
   14.9763    1.1512   -0.5092 C   0  0  0  0  0  0  0  0  0  0  0  0
   15.8292    1.8695   -1.3544 C   0  0  0  0  0  0  0  0  0  0  0  0
   15.6510    1.8547   -2.7408 C   0  0  0  0  0  0  0  0  0  0  0  0
   14.6183    1.1233   -3.3355 C   0  0  0  0  0  0  0  0  0  0  0  0
   13.7541    0.4415   -2.4689 C   0  0  0  0  0  0  0  0  0  0  0  0
   12.6673   -0.4179   -2.6266 N   0  0  0  0  0  0  0  0  0  0  0  0
   12.5680   -1.4923   -3.5683 C   0  0  0  0  0  0  0  0  0  0  0  0
   13.6659   -1.8005   -4.4027 C   0  0  0  0  0  0  0  0  0  0  0  0
   13.6812   -2.9679   -5.1691 C   0  0  0  0  0  0  0  0  0  0  0  0
   12.5982   -3.8270   -5.1195 C   0  0  0  0  0  0  0  0  0  0  0  0
   12.6377   -4.9767   -5.8058 F   0  0  0  0  0  0  0  0  0  0  0  0
   11.4844   -3.5198   -4.3418 C   0  0  0  0  0  0  0  0  0  0  0  0
   11.4632   -2.3512   -3.5652 C   0  0  0  0  0  0  0  0  0  0  0  0
    7.2284    2.8352    0.7682 C   0  0  0  0  0  0  0  0  0  0  0  0
    6.5465    2.9498    1.9866 C   0  0  0  0  0  0  0  0  0  0  0  0
    6.5685    1.0356    7.3674 H   0  0  0  0  0  0  0  0  0  0  0  0
    4.9530    0.9919    6.6028 H   0  0  0  0  0  0  0  0  0  0  0  0
    5.7313    2.5617    6.9490 H   0  0  0  0  0  0  0  0  0  0  0  0
    7.4639    1.1130    5.2830 H   0  0  0  0  0  0  0  0  0  0  0  0
    7.5835    0.0390    3.4118 H   0  0  0  0  0  0  0  0  0  0  0  0
    8.7922   -0.1468    1.3100 H   0  0  0  0  0  0  0  0  0  0  0  0
    9.4097    2.5694   -0.9075 H   0  0  0  0  0  0  0  0  0  0  0  0
    8.0333    1.7572   -1.6463 H   0  0  0  0  0  0  0  0  0  0  0  0
   11.2538    1.4441   -0.6375 H   0  0  0  0  0  0  0  0  0  0  0  0
   15.0919    1.1755    0.5682 H   0  0  0  0  0  0  0  0  0  0  0  0
   16.6301    2.4617   -0.9194 H   0  0  0  0  0  0  0  0  0  0  0  0
   16.3323    2.4234   -3.3712 H   0  0  0  0  0  0  0  0  0  0  0  0
   14.4868    1.1116   -4.4132 H   0  0  0  0  0  0  0  0  0  0  0  0
   14.5682   -1.1989   -4.4259 H   0  0  0  0  0  0  0  0  0  0  0  0
   14.5513   -3.2270   -5.7681 H   0  0  0  0  0  0  0  0  0  0  0  0
   10.6502   -4.2143   -4.3213 H   0  0  0  0  0  0  0  0  0  0  0  0
   10.5905   -2.1601   -2.9448 H   0  0  0  0  0  0  0  0  0  0  0  0
    7.0988    3.6199    0.0236 H   0  0  0  0  0  0  0  0  0  0  0  0
    5.9013    3.8103    2.1678 H   0  0  0  0  0  0  0  0  0  0  0  0
  1  2  1  0  0  0  0
  1 31  1  0  0  0  0
  1 32  1  0  0  0  0
  1 33  1  0  0  0  0
  2  3  1  0  0  0  0
  2 34  1  0  0  0  0
  3  4  2  0  0  0  0
  3  5  1  0  0  0  0
  5  6  2  0  0  0  0
  5 30  1  0  0  0  0
  6  7  1  0  0  0  0
  6 35  1  0  0  0  0
  7  8  2  0  0  0  0
  7 36  1  0  0  0  0
  8  9  1  0  0  0  0
  8 29  1  0  0  0  0
  9 10  1  0  0  0  0
  9 37  1  0  0  0  0
  9 38  1  0  0  0  0
 10 11  2  0  0  0  0
 10 12  1  0  0  0  0
 12 13  1  0  0  0  0
 12 39  1  0  0  0  0
 13 14  2  0  0  0  0
 13 21  1  0  0  0  0
 14 15  1  0  0  0  0
 15 16  2  0  0  0  0
 15 20  1  0  0  0  0
 16 17  1  0  0  0  0
 16 40  1  0  0  0  0
 17 18  2  0  0  0  0
 17 41  1  0  0  0  0
 18 19  1  0  0  0  0
 18 42  1  0  0  0  0
 19 20  2  0  0  0  0
 19 43  1  0  0  0  0
 20 21  1  0  0  0  0
 21 22  1  0  0  0  0
 22 23  2  0  0  0  0
 22 28  1  0  0  0  0
 23 24  1  0  0  0  0
 23 44  1  0  0  0  0
 24 25  2  0  0  0  0
 24 45  1  0  0  0  0
 25 26  1  0  0  0  0
 25 27  1  0  0  0  0
 27 28  2  0  0  0  0
 27 46  1  0  0  0  0
 28 47  1  0  0  0  0
 29 30  2  0  0  0  0
 29 48  1  0  0  0  0
 30 49  1  0  0  0  0
M  END
$$$$
