
 OpenBabel01122422393D

 49 52  0  0  0  0  0  0  0  0999 V2000
    3.5494   -1.0855    0.0465 C   0  0  0  0  0  0  0  0  0  0  0  0
    2.7336    0.0630    0.2930 O   0  0  0  0  0  0  0  0  0  0  0  0
    3.3145    1.2766    0.0432 C   0  0  0  0  0  0  0  0  0  0  0  0
    4.2332    1.4309   -0.9981 C   0  0  0  0  0  0  0  0  0  0  0  0
    4.9079    2.6436   -1.1912 C   0  0  0  0  0  0  0  0  0  0  0  0
    5.9005    2.7353   -2.1633 C   0  0  0  0  0  0  0  0  0  0  0  0
    6.5676    3.9334   -2.3312 C   0  0  0  0  0  0  0  0  0  0  0  0
    6.2057    5.0095   -1.5295 C   0  0  0  0  0  0  0  0  0  0  0  0
    6.9030    6.3029   -1.7716 C   0  0  0  0  0  0  0  0  0  0  0  0
    7.6882    6.3600   -2.7186 O   0  0  0  0  0  0  0  0  0  0  0  0
    6.6607    7.3399   -0.8796 N   0  0  0  0  0  0  0  0  0  0  0  0
    7.2605    8.5828   -0.9584 C   0  0  0  0  0  0  0  0  0  0  0  0
    7.7917    9.0795   -2.0895 C   0  0  0  0  0  0  0  0  0  0  0  0
    8.5008   10.2740   -2.1529 N   0  0  0  0  0  0  0  0  0  0  0  0
    9.1653   10.6480   -3.3698 C   0  0  0  0  0  0  0  0  0  0  0  0
    9.8116    9.6719   -4.1487 C   0  0  0  0  0  0  0  0  0  0  0  0
   10.5184   10.0269   -5.2994 C   0  0  0  0  0  0  0  0  0  0  0  0
   10.5542   11.3564   -5.7095 C   0  0  0  0  0  0  0  0  0  0  0  0
    9.8824   12.3290   -4.9711 C   0  0  0  0  0  0  0  0  0  0  0  0
    9.2018   11.9790   -3.8009 C   0  0  0  0  0  0  0  0  0  0  0  0
    8.6945   11.0482   -0.9973 C   0  0  0  0  0  0  0  0  0  0  0  0
    9.3716   12.0701   -0.8994 O   0  0  0  0  0  0  0  0  0  0  0  0
    8.0437   10.5309    0.2432 C   0  0  0  0  0  0  0  0  0  0  0  0
    7.3610    9.3779    0.2440 C   0  0  0  0  0  0  0  0  0  0  0  0
    5.2551    4.9572   -0.5595 N   0  0  0  0  0  0  0  0  0  0  0  0
    4.6158    3.7745   -0.3979 C   0  0  0  0  0  0  0  0  0  0  0  0
    3.6368    3.6227    0.5718 C   0  0  0  0  0  0  0  0  0  0  0  0
    2.9834    2.3963    0.8167 C   0  0  0  0  0  0  0  0  0  0  0  0
    2.0930    2.4912    1.8532 O   0  0  0  0  0  0  0  0  0  0  0  0
    1.3571    1.3441    2.2485 C   0  0  0  0  0  0  0  0  0  0  0  0
    3.3927   -1.7936    0.8650 H   0  0  0  0  0  0  0  0  0  0  0  0
    4.6246   -0.8721    0.0147 H   0  0  0  0  0  0  0  0  0  0  0  0
    3.2345   -1.5599   -0.8882 H   0  0  0  0  0  0  0  0  0  0  0  0
    4.4482    0.6009   -1.6666 H   0  0  0  0  0  0  0  0  0  0  0  0
    6.1744    1.8848   -2.7806 H   0  0  0  0  0  0  0  0  0  0  0  0
    7.3552    4.0242   -3.0721 H   0  0  0  0  0  0  0  0  0  0  0  0
    6.1316    7.0875   -0.0487 H   0  0  0  0  0  0  0  0  0  0  0  0
    7.6737    8.5675   -3.0380 H   0  0  0  0  0  0  0  0  0  0  0  0
    9.8274    8.6301   -3.8348 H   0  0  0  0  0  0  0  0  0  0  0  0
   11.0536    9.2660   -5.8612 H   0  0  0  0  0  0  0  0  0  0  0  0
   11.1111   11.6358   -6.5998 H   0  0  0  0  0  0  0  0  0  0  0  0
    9.8960   13.3654   -5.2976 H   0  0  0  0  0  0  0  0  0  0  0  0
    8.6823   12.7547   -3.2438 H   0  0  0  0  0  0  0  0  0  0  0  0
    8.1861   11.1291    1.1341 H   0  0  0  0  0  0  0  0  0  0  0  0
    6.9119    9.0163    1.1626 H   0  0  0  0  0  0  0  0  0  0  0  0
    3.3751    4.4826    1.1851 H   0  0  0  0  0  0  0  0  0  0  0  0
    0.7720    1.6225    3.1316 H   0  0  0  0  0  0  0  0  0  0  0  0
    2.0155    0.5252    2.5524 H   0  0  0  0  0  0  0  0  0  0  0  0
    0.6509    1.0390    1.4701 H   0  0  0  0  0  0  0  0  0  0  0  0
  1  2  1  0  0  0  0
  1 31  1  0  0  0  0
  1 32  1  0  0  0  0
  1 33  1  0  0  0  0
  2  3  1  0  0  0  0
  3  4  2  0  0  0  0
  3 28  1  0  0  0  0
  4  5  1  0  0  0  0
  4 34  1  0  0  0  0
  5  6  2  0  0  0  0
  5 26  1  0  0  0  0
  6  7  1  0  0  0  0
  6 35  1  0  0  0  0
  7  8  2  0  0  0  0
  7 36  1  0  0  0  0
  8  9  1  0  0  0  0
  8 25  1  0  0  0  0
  9 10  2  0  0  0  0
  9 11  1  0  0  0  0
 11 12  1  0  0  0  0
 11 37  1  0  0  0  0
 12 13  2  0  0  0  0
 12 24  1  0  0  0  0
 13 14  1  0  0  0  0
 13 38  1  0  0  0  0
 14 15  1  0  0  0  0
 14 21  1  0  0  0  0
 15 16  2  0  0  0  0
 15 20  1  0  0  0  0
 16 17  1  0  0  0  0
 16 39  1  0  0  0  0
 17 18  2  0  0  0  0
 17 40  1  0  0  0  0
 18 19  1  0  0  0  0
 18 41  1  0  0  0  0
 19 20  2  0  0  0  0
 19 42  1  0  0  0  0
 20 43  1  0  0  0  0
 21 22  2  0  0  0  0
 21 23  1  0  0  0  0
 23 24  2  0  0  0  0
 23 44  1  0  0  0  0
 24 45  1  0  0  0  0
 25 26  2  0  0  0  0
 26 27  1  0  0  0  0
 27 28  2  0  0  0  0
 27 46  1  0  0  0  0
 28 29  1  0  0  0  0
 29 30  1  0  0  0  0
 30 47  1  0  0  0  0
 30 48  1  0  0  0  0
 30 49  1  0  0  0  0
M  END
$$$$
