
 OpenBabel01122422393D

 46 49  0  0  0  0  0  0  0  0999 V2000
    0.9792    0.1988   -0.3109 C   0  0  0  0  0  0  0  0  0  0  0  0
    2.4144    0.0401    0.0528 C   0  0  0  0  0  0  0  0  0  0  0  0
    3.1568    1.1100    0.3439 N   0  0  0  0  0  0  0  0  0  0  0  0
    4.4015    0.6270    0.5614 N   0  0  0  0  0  0  0  0  0  0  0  0
    5.4722    1.5121    0.8503 C   0  0  0  0  0  0  0  0  0  0  0  0
    5.2103    2.8759    1.0185 C   0  0  0  0  0  0  0  0  0  0  0  0
    6.2731    3.7181    1.2884 C   0  0  0  0  0  0  0  0  0  0  0  0
    7.5523    3.2994    1.3903 N   0  0  0  0  0  0  0  0  0  0  0  0
    7.7783    1.9803    1.2194 C   0  0  0  0  0  0  0  0  0  0  0  0
    6.7851    1.0518    0.9569 C   0  0  0  0  0  0  0  0  0  0  0  0
    4.4391   -0.7489    0.4482 C   0  0  0  0  0  0  0  0  0  0  0  0
    3.1613   -1.1675    0.1416 C   0  0  0  0  0  0  0  0  0  0  0  0
    2.6243   -2.5005   -0.0746 C   0  0  0  0  0  0  0  0  0  0  0  0
    1.4445   -2.6136   -0.3904 O   0  0  0  0  0  0  0  0  0  0  0  0
    3.4885   -3.5626    0.1405 N   0  0  0  0  0  0  0  0  0  0  0  0
    3.1279   -4.9263    0.0061 C   0  0  0  0  0  0  0  0  0  0  0  0
    1.9510   -5.3257   -0.6292 C   0  0  0  0  0  0  0  0  0  0  0  0
    1.5720   -6.6620   -0.6726 C   0  0  0  0  0  0  0  0  0  0  0  0
    2.4095   -7.6460   -0.1579 C   0  0  0  0  0  0  0  0  0  0  0  0
    2.0945   -8.9868   -0.1973 O   0  0  0  0  0  0  0  0  0  0  0  0
    1.4373   -9.4587   -1.3321 C   0  0  0  0  0  0  0  0  0  0  0  0
    1.6645   -8.8350   -2.5192 N   0  0  0  0  0  0  0  0  0  0  0  0
    0.9864   -9.2719   -3.5985 C   0  0  0  0  0  0  0  0  0  0  0  0
    0.1178  -10.3465   -3.5657 C   0  0  0  0  0  0  0  0  0  0  0  0
   -0.0709  -11.0044   -2.3512 C   0  0  0  0  0  0  0  0  0  0  0  0
    0.5953  -10.5555   -1.2045 C   0  0  0  0  0  0  0  0  0  0  0  0
    0.3872  -11.2034    0.0515 C   0  0  0  0  0  0  0  0  0  0  0  0
    0.1894  -11.7554    1.0538 N   0  0  0  0  0  0  0  0  0  0  0  0
    3.5990   -7.2684    0.4687 C   0  0  0  0  0  0  0  0  0  0  0  0
    3.9638   -5.9133    0.5434 C   0  0  0  0  0  0  0  0  0  0  0  0
    0.6849    1.2515   -0.3540 H   0  0  0  0  0  0  0  0  0  0  0  0
    0.3379   -0.3033    0.4209 H   0  0  0  0  0  0  0  0  0  0  0  0
    0.7887   -0.2380   -1.2976 H   0  0  0  0  0  0  0  0  0  0  0  0
    4.2046    3.2835    0.9516 H   0  0  0  0  0  0  0  0  0  0  0  0
    6.1192    4.7836    1.4324 H   0  0  0  0  0  0  0  0  0  0  0  0
    8.8187    1.6768    1.2968 H   0  0  0  0  0  0  0  0  0  0  0  0
    7.0646    0.0148    0.8267 H   0  0  0  0  0  0  0  0  0  0  0  0
    5.3530   -1.3004    0.5947 H   0  0  0  0  0  0  0  0  0  0  0  0
    4.3990   -3.3660    0.5322 H   0  0  0  0  0  0  0  0  0  0  0  0
    1.2915   -4.6241   -1.1255 H   0  0  0  0  0  0  0  0  0  0  0  0
    0.6265   -6.9085   -1.1460 H   0  0  0  0  0  0  0  0  0  0  0  0
    1.1630   -8.7119   -4.5130 H   0  0  0  0  0  0  0  0  0  0  0  0
   -0.3990  -10.6638   -4.4653 H   0  0  0  0  0  0  0  0  0  0  0  0
   -0.7434  -11.8587   -2.3046 H   0  0  0  0  0  0  0  0  0  0  0  0
    4.2428   -8.0291    0.9051 H   0  0  0  0  0  0  0  0  0  0  0  0
    4.8922   -5.6528    1.0445 H   0  0  0  0  0  0  0  0  0  0  0  0
  1  2  1  0  0  0  0
  1 31  1  0  0  0  0
  1 32  1  0  0  0  0
  1 33  1  0  0  0  0
  2  3  2  0  0  0  0
  2 12  1  0  0  0  0
  3  4  1  0  0  0  0
  4  5  1  0  0  0  0
  4 11  1  0  0  0  0
  5  6  2  0  0  0  0
  5 10  1  0  0  0  0
  6  7  1  0  0  0  0
  6 34  1  0  0  0  0
  7  8  2  0  0  0  0
  7 35  1  0  0  0  0
  8  9  1  0  0  0  0
  9 10  2  0  0  0  0
  9 36  1  0  0  0  0
 10 37  1  0  0  0  0
 11 12  2  0  0  0  0
 11 38  1  0  0  0  0
 12 13  1  0  0  0  0
 13 14  2  0  0  0  0
 13 15  1  0  0  0  0
 15 16  1  0  0  0  0
 15 39  1  0  0  0  0
 16 17  2  0  0  0  0
 16 30  1  0  0  0  0
 17 18  1  0  0  0  0
 17 40  1  0  0  0  0
 18 19  2  0  0  0  0
 18 41  1  0  0  0  0
 19 20  1  0  0  0  0
 19 29  1  0  0  0  0
 20 21  1  0  0  0  0
 21 22  2  0  0  0  0
 21 26  1  0  0  0  0
 22 23  1  0  0  0  0
 23 24  2  0  0  0  0
 23 42  1  0  0  0  0
 24 25  1  0  0  0  0
 24 43  1  0  0  0  0
 25 26  2  0  0  0  0
 25 44  1  0  0  0  0
 26 27  1  0  0  0  0
 27 28  3  0  0  0  0
 29 30  2  0  0  0  0
 29 45  1  0  0  0  0
 30 46  1  0  0  0  0
M  END
$$$$
