
 OpenBabel01122422393D

 45 48  0  0  1  0  0  0  0  0999 V2000
    1.4072   -0.8629   -0.6767 N   0  0  0  0  0  0  0  0  0  0  0  0
    2.4771   -0.4959   -0.4147 C   0  0  0  0  0  0  0  0  0  0  0  0
    3.8420   -0.0259   -0.0677 C   0  0  3  0  0  0  0  0  0  0  0  0
    4.8058   -1.1601    0.2639 C   0  0  0  0  0  0  0  0  0  0  0  0
    4.6925   -2.4309   -0.3254 C   0  0  0  0  0  0  0  0  0  0  0  0
    5.5418   -3.4703    0.0536 C   0  0  0  0  0  0  0  0  0  0  0  0
    6.5276   -3.2524    1.0123 C   0  0  0  0  0  0  0  0  0  0  0  0
    6.6756   -1.9911    1.5842 C   0  0  0  0  0  0  0  0  0  0  0  0
    5.8248   -0.9493    1.2105 C   0  0  0  0  0  0  0  0  0  0  0  0
    4.3367    0.9816   -1.0987 C   0  0  0  0  0  0  0  0  0  0  0  0
    3.9402    2.3169   -0.9433 C   0  0  0  0  0  0  0  0  0  0  0  0
    4.2510    3.2781   -1.9025 C   0  0  0  0  0  0  0  0  0  0  0  0
    4.9641    2.9422   -3.0512 C   0  0  0  0  0  0  0  0  0  0  0  0
    5.2640    3.8747   -4.0654 N   0  0  0  0  0  0  0  0  0  0  0  0
    4.8628    5.1936   -4.1239 C   0  0  0  0  0  0  0  0  0  0  0  0
    4.1436    5.7571   -3.3009 O   0  0  0  0  0  0  0  0  0  0  0  0
    5.3761    5.9802   -5.2921 C   0  0  0  0  0  0  0  0  0  0  0  0
    4.9242    7.2441   -5.3934 C   0  0  0  0  0  0  0  0  0  0  0  0
    5.3863    8.1119   -6.3491 N   0  0  0  0  0  0  0  0  0  0  0  0
    6.3723    7.8063   -7.2576 C   0  0  0  0  0  0  0  0  0  0  0  0
    6.7931    8.6236   -8.0646 O   0  0  0  0  0  0  0  0  0  0  0  0
    6.8947    6.4255   -7.2024 C   0  0  0  0  0  0  0  0  0  0  0  0
    7.9072    6.0054   -8.0638 C   0  0  0  0  0  0  0  0  0  0  0  0
    8.3565    4.6917   -7.9864 C   0  0  0  0  0  0  0  0  0  0  0  0
    7.7629    3.8466   -7.0630 C   0  0  0  0  0  0  0  0  0  0  0  0
    6.7867    4.2300   -6.2063 N   0  0  0  0  0  0  0  0  0  0  0  0
    6.3748    5.5270   -6.2721 C   0  0  0  0  0  0  0  0  0  0  0  0
    5.3954    1.6179   -3.2027 C   0  0  0  0  0  0  0  0  0  0  0  0
    5.0787    0.6430   -2.2408 C   0  0  0  0  0  0  0  0  0  0  0  0
    3.7215    0.5254    0.8784 H   0  0  0  0  0  0  0  0  0  0  0  0
    3.9272   -2.6379   -1.0724 H   0  0  0  0  0  0  0  0  0  0  0  0
    5.4234   -4.4544   -0.3927 H   0  0  0  0  0  0  0  0  0  0  0  0
    7.1794   -4.0678    1.3146 H   0  0  0  0  0  0  0  0  0  0  0  0
    7.4481   -1.8219    2.3305 H   0  0  0  0  0  0  0  0  0  0  0  0
    5.9525    0.0252    1.6794 H   0  0  0  0  0  0  0  0  0  0  0  0
    3.3531    2.6295   -0.0816 H   0  0  0  0  0  0  0  0  0  0  0  0
    3.9013    4.2866   -1.7167 H   0  0  0  0  0  0  0  0  0  0  0  0
    5.8356    3.5460   -4.8445 H   0  0  0  0  0  0  0  0  0  0  0  0
    4.1886    7.6622   -4.7083 H   0  0  0  0  0  0  0  0  0  0  0  0
    5.0330    9.0637   -6.3781 H   0  0  0  0  0  0  0  0  0  0  0  0
    8.3457    6.6978   -8.7784 H   0  0  0  0  0  0  0  0  0  0  0  0
    9.1509    4.3349   -8.6332 H   0  0  0  0  0  0  0  0  0  0  0  0
    8.0725    2.8079   -6.9790 H   0  0  0  0  0  0  0  0  0  0  0  0
    5.9634    1.3195   -4.0819 H   0  0  0  0  0  0  0  0  0  0  0  0
    5.4060   -0.3815   -2.4107 H   0  0  0  0  0  0  0  0  0  0  0  0
  1  2  3  0  0  0  0
  2  3  1  0  0  0  0
  3  4  1  0  0  0  0
  3 10  1  0  0  0  0
  3 30  1  0  0  0  0
  4  5  2  0  0  0  0
  4  9  1  0  0  0  0
  5  6  1  0  0  0  0
  5 31  1  0  0  0  0
  6  7  2  0  0  0  0
  6 32  1  0  0  0  0
  7  8  1  0  0  0  0
  7 33  1  0  0  0  0
  8  9  2  0  0  0  0
  8 34  1  0  0  0  0
  9 35  1  0  0  0  0
 10 11  2  0  0  0  0
 10 29  1  0  0  0  0
 11 12  1  0  0  0  0
 11 36  1  0  0  0  0
 12 13  2  0  0  0  0
 12 37  1  0  0  0  0
 13 14  1  0  0  0  0
 13 28  1  0  0  0  0
 14 15  1  0  0  0  0
 14 38  1  0  0  0  0
 15 16  2  0  0  0  0
 15 17  1  0  0  0  0
 17 18  2  0  0  0  0
 17 27  1  0  0  0  0
 18 19  1  0  0  0  0
 18 39  1  0  0  0  0
 19 20  1  0  0  0  0
 19 40  1  0  0  0  0
 20 21  2  0  0  0  0
 20 22  1  0  0  0  0
 22 23  2  0  0  0  0
 22 27  1  0  0  0  0
 23 24  1  0  0  0  0
 23 41  1  0  0  0  0
 24 25  2  0  0  0  0
 24 42  1  0  0  0  0
 25 26  1  0  0  0  0
 25 43  1  0  0  0  0
 26 27  2  0  0  0  0
 28 29  2  0  0  0  0
 28 44  1  0  0  0  0
 29 45  1  0  0  0  0
M  END
$$$$
