
 OpenBabel01122422393D

 46 49  0  0  0  0  0  0  0  0999 V2000
    9.8151    5.4082    5.2462 C   0  0  0  0  0  0  0  0  0  0  0  0
    9.3590    4.2737    4.3878 C   0  0  0  0  0  0  0  0  0  0  0  0
    9.7820    2.9756    4.5897 C   0  0  0  0  0  0  0  0  0  0  0  0
    9.3832    1.9287    3.8336 N   0  0  0  0  0  0  0  0  0  0  0  0
    8.5480    2.1335    2.8150 C   0  0  0  0  0  0  0  0  0  0  0  0
    8.1917    1.0614    2.1070 N   0  0  0  0  0  0  0  0  0  0  0  0
    7.3615    1.1988    1.0566 C   0  0  0  0  0  0  0  0  0  0  0  0
    6.8329    2.4017    0.6547 C   0  0  0  0  0  0  0  0  0  0  0  0
    7.1925    3.5308    1.3868 C   0  0  0  0  0  0  0  0  0  0  0  0
    6.7096    4.8576    0.9052 C   0  0  0  0  0  0  0  0  0  0  0  0
    7.4947    5.7938    0.8486 O   0  0  0  0  0  0  0  0  0  0  0  0
    5.3616    4.9164    0.5924 N   0  0  0  0  0  0  0  0  0  0  0  0
    4.6761    6.1224    0.2801 C   0  0  0  0  0  0  0  0  0  0  0  0
    3.4434    6.2880    0.9400 C   0  0  0  0  0  0  0  0  0  0  0  0
    2.7029    7.4529    0.7772 C   0  0  0  0  0  0  0  0  0  0  0  0
    1.5634    7.6151    1.4615 F   0  0  0  0  0  0  0  0  0  0  0  0
    3.1322    8.4481   -0.0764 C   0  0  0  0  0  0  0  0  0  0  0  0
    4.3283    8.2760   -0.7711 C   0  0  0  0  0  0  0  0  0  0  0  0
    5.1345    7.1326   -0.6017 C   0  0  0  0  0  0  0  0  0  0  0  0
    6.3138    6.9786   -1.3810 N   0  0  0  0  0  0  0  0  0  0  0  0
    6.9740    8.0003   -2.0622 C   0  0  0  0  0  0  0  0  0  0  0  0
    6.6979    9.1963   -1.9902 O   0  0  0  0  0  0  0  0  0  0  0  0
    8.1091    7.5998   -2.9524 C   0  0  0  0  0  0  0  0  0  0  0  0
    8.8035    8.6157   -3.6133 C   0  0  0  0  0  0  0  0  0  0  0  0
    9.7994    8.2735   -4.5201 C   0  0  0  0  0  0  0  0  0  0  0  0
   10.0729    6.9276   -4.7320 C   0  0  0  0  0  0  0  0  0  0  0  0
    9.3410    5.9818   -4.0251 C   0  0  0  0  0  0  0  0  0  0  0  0
    8.3573    6.2782   -3.1369 N   0  0  0  0  0  0  0  0  0  0  0  0
    8.0630    3.4148    2.5022 C   0  0  0  0  0  0  0  0  0  0  0  0
    8.4748    4.4849    3.3339 C   0  0  0  0  0  0  0  0  0  0  0  0
   10.5566    5.0847    5.9839 H   0  0  0  0  0  0  0  0  0  0  0  0
    8.9647    5.8377    5.7853 H   0  0  0  0  0  0  0  0  0  0  0  0
   10.2762    6.1852    4.6278 H   0  0  0  0  0  0  0  0  0  0  0  0
   10.4802    2.7201    5.3832 H   0  0  0  0  0  0  0  0  0  0  0  0
    7.1444    0.2766    0.5228 H   0  0  0  0  0  0  0  0  0  0  0  0
    6.1986    2.4535   -0.2223 H   0  0  0  0  0  0  0  0  0  0  0  0
    4.7907    4.1859    1.0035 H   0  0  0  0  0  0  0  0  0  0  0  0
    3.0666    5.5471    1.6384 H   0  0  0  0  0  0  0  0  0  0  0  0
    2.5431    9.3496   -0.2120 H   0  0  0  0  0  0  0  0  0  0  0  0
    4.5922    9.0614   -1.4734 H   0  0  0  0  0  0  0  0  0  0  0  0
    6.8067    6.0903   -1.3321 H   0  0  0  0  0  0  0  0  0  0  0  0
    8.5587    9.6595   -3.4393 H   0  0  0  0  0  0  0  0  0  0  0  0
   10.3406    9.0496   -5.0564 H   0  0  0  0  0  0  0  0  0  0  0  0
   10.8407    6.6304   -5.4416 H   0  0  0  0  0  0  0  0  0  0  0  0
    9.5377    4.9228   -4.1742 H   0  0  0  0  0  0  0  0  0  0  0  0
    8.1161    5.4968    3.1537 H   0  0  0  0  0  0  0  0  0  0  0  0
  1  2  1  0  0  0  0
  1 31  1  0  0  0  0
  1 32  1  0  0  0  0
  1 33  1  0  0  0  0
  2  3  2  0  0  0  0
  2 30  1  0  0  0  0
  3  4  1  0  0  0  0
  3 34  1  0  0  0  0
  4  5  2  0  0  0  0
  5  6  1  0  0  0  0
  5 29  1  0  0  0  0
  6  7  2  0  0  0  0
  7  8  1  0  0  0  0
  7 35  1  0  0  0  0
  8  9  2  0  0  0  0
  8 36  1  0  0  0  0
  9 10  1  0  0  0  0
  9 29  1  0  0  0  0
 10 11  2  0  0  0  0
 10 12  1  0  0  0  0
 12 13  1  0  0  0  0
 12 37  1  0  0  0  0
 13 14  2  0  0  0  0
 13 19  1  0  0  0  0
 14 15  1  0  0  0  0
 14 38  1  0  0  0  0
 15 16  1  0  0  0  0
 15 17  2  0  0  0  0
 17 18  1  0  0  0  0
 17 39  1  0  0  0  0
 18 19  2  0  0  0  0
 18 40  1  0  0  0  0
 19 20  1  0  0  0  0
 20 21  1  0  0  0  0
 20 41  1  0  0  0  0
 21 22  2  0  0  0  0
 21 23  1  0  0  0  0
 23 24  2  0  0  0  0
 23 28  1  0  0  0  0
 24 25  1  0  0  0  0
 24 42  1  0  0  0  0
 25 26  2  0  0  0  0
 25 43  1  0  0  0  0
 26 27  1  0  0  0  0
 26 44  1  0  0  0  0
 27 28  2  0  0  0  0
 27 45  1  0  0  0  0
 29 30  2  0  0  0  0
 30 46  1  0  0  0  0
M  END
$$$$
