
 OpenBabel01122422393D

 58 61  0  0  0  0  0  0  0  0999 V2000
    2.3879    0.5579   -0.7779 C   0  0  0  0  0  0  0  0  0  0  0  0
    3.0509   -0.5298   -0.1420 O   0  0  0  0  0  0  0  0  0  0  0  0
    3.5464   -0.2893    1.1202 C   0  0  0  0  0  0  0  0  0  0  0  0
    2.9682    0.6318    1.9940 C   0  0  0  0  0  0  0  0  0  0  0  0
    3.5021    0.8239    3.2652 C   0  0  0  0  0  0  0  0  0  0  0  0
    4.6246    0.1001    3.6978 C   0  0  0  0  0  0  0  0  0  0  0  0
    5.1569    0.4047    5.0874 C   0  0  0  0  0  0  0  0  0  0  0  0
    4.5342   -0.4793    6.1673 C   0  0  0  0  0  0  0  0  0  0  0  0
    5.0516   -0.1982    7.4926 N   0  0  0  0  0  0  0  0  0  0  0  0
    4.6044   -0.9049    8.5950 C   0  0  0  0  0  0  0  0  0  0  0  0
    3.7794   -1.8120    8.5078 O   0  0  0  0  0  0  0  0  0  0  0  0
    5.1842   -0.4721    9.8633 C   0  0  0  0  0  0  0  0  0  0  0  0
    4.9642   -0.9633   11.1465 C   0  0  0  0  0  0  0  0  0  0  0  0
    4.1125   -2.0647   11.6479 C   0  0  0  0  0  0  0  0  0  0  0  0
    5.7459   -0.1648   11.9448 N   0  0  0  0  0  0  0  0  0  0  0  0
    5.9177   -0.1622   13.3988 C   0  0  0  0  0  0  0  0  0  0  0  0
    6.9259    0.9146   13.7999 C   0  0  0  0  0  0  0  0  0  0  0  0
    7.2138    1.0528   15.1948 O   0  0  0  0  0  0  0  0  0  0  0  0
    8.1508    2.0486   15.4329 C   0  0  0  0  0  0  0  0  0  0  0  0
    8.7458    2.8448   14.4367 C   0  0  0  0  0  0  0  0  0  0  0  0
    9.6894    3.8195   14.7600 C   0  0  0  0  0  0  0  0  0  0  0  0
   10.0440    4.0076   16.0838 C   0  0  0  0  0  0  0  0  0  0  0  0
   10.9482    4.9466   16.3938 F   0  0  0  0  0  0  0  0  0  0  0  0
    9.4664    3.2402   17.0909 C   0  0  0  0  0  0  0  0  0  0  0  0
    8.5181    2.2587   16.7659 C   0  0  0  0  0  0  0  0  0  0  0  0
    6.4158    0.7393   11.1963 N   0  0  0  0  0  0  0  0  0  0  0  0
    6.0840    0.5637    9.9328 N   0  0  0  0  0  0  0  0  0  0  0  0
    5.2023   -0.8781    2.8390 C   0  0  0  0  0  0  0  0  0  0  0  0
    6.3038   -1.6816    3.2153 C   0  0  0  0  0  0  0  0  0  0  0  0
    6.8631   -2.6256    2.3496 C   0  0  0  0  0  0  0  0  0  0  0  0
    6.3326   -2.7983    1.0817 C   0  0  0  0  0  0  0  0  0  0  0  0
    5.2426   -2.0288    0.6826 C   0  0  0  0  0  0  0  0  0  0  0  0
    4.6545   -1.0664    1.5373 C   0  0  0  0  0  0  0  0  0  0  0  0
    2.1841    0.2659   -1.8128 H   0  0  0  0  0  0  0  0  0  0  0  0
    3.0228    1.4504   -0.8000 H   0  0  0  0  0  0  0  0  0  0  0  0
    1.4238    0.7699   -0.3058 H   0  0  0  0  0  0  0  0  0  0  0  0
    2.0900    1.2048    1.7192 H   0  0  0  0  0  0  0  0  0  0  0  0
    3.0294    1.5507    3.9236 H   0  0  0  0  0  0  0  0  0  0  0  0
    4.9582    1.4593    5.3235 H   0  0  0  0  0  0  0  0  0  0  0  0
    6.2503    0.3287    5.1047 H   0  0  0  0  0  0  0  0  0  0  0  0
    4.7125   -1.5398    5.9597 H   0  0  0  0  0  0  0  0  0  0  0  0
    3.4466   -0.3362    6.2034 H   0  0  0  0  0  0  0  0  0  0  0  0
    5.7016    0.5657    7.6592 H   0  0  0  0  0  0  0  0  0  0  0  0
    3.6707   -2.6395   10.8291 H   0  0  0  0  0  0  0  0  0  0  0  0
    3.2929   -1.6712   12.2565 H   0  0  0  0  0  0  0  0  0  0  0  0
    4.6966   -2.7641   12.2533 H   0  0  0  0  0  0  0  0  0  0  0  0
    6.2573   -1.1584   13.7005 H   0  0  0  0  0  0  0  0  0  0  0  0
    4.9370    0.0224   13.8508 H   0  0  0  0  0  0  0  0  0  0  0  0
    6.5224    1.8736   13.4501 H   0  0  0  0  0  0  0  0  0  0  0  0
    7.8669    0.6716   13.2889 H   0  0  0  0  0  0  0  0  0  0  0  0
    8.5051    2.7415   13.3826 H   0  0  0  0  0  0  0  0  0  0  0  0
   10.1417    4.4240   13.9802 H   0  0  0  0  0  0  0  0  0  0  0  0
    9.7593    3.4134   18.1204 H   0  0  0  0  0  0  0  0  0  0  0  0
    8.0746    1.6617   17.5586 H   0  0  0  0  0  0  0  0  0  0  0  0
    6.7514   -1.5894    4.2020 H   0  0  0  0  0  0  0  0  0  0  0  0
    7.7104   -3.2237    2.6743 H   0  0  0  0  0  0  0  0  0  0  0  0
    6.7614   -3.5305    0.4006 H   0  0  0  0  0  0  0  0  0  0  0  0
    4.8425   -2.1854   -0.3171 H   0  0  0  0  0  0  0  0  0  0  0  0
  1  2  1  0  0  0  0
  1 34  1  0  0  0  0
  1 35  1  0  0  0  0
  1 36  1  0  0  0  0
  2  3  1  0  0  0  0
  3  4  2  0  0  0  0
  3 33  1  0  0  0  0
  4  5  1  0  0  0  0
  4 37  1  0  0  0  0
  5  6  2  0  0  0  0
  5 38  1  0  0  0  0
  6  7  1  0  0  0  0
  6 28  1  0  0  0  0
  7  8  1  0  0  0  0
  7 39  1  0  0  0  0
  7 40  1  0  0  0  0
  8  9  1  0  0  0  0
  8 41  1  0  0  0  0
  8 42  1  0  0  0  0
  9 10  1  0  0  0  0
  9 43  1  0  0  0  0
 10 11  2  0  0  0  0
 10 12  1  0  0  0  0
 12 13  2  0  0  0  0
 12 27  1  0  0  0  0
 13 14  1  0  0  0  0
 13 15  1  0  0  0  0
 14 44  1  0  0  0  0
 14 45  1  0  0  0  0
 14 46  1  0  0  0  0
 15 16  1  0  0  0  0
 15 26  1  0  0  0  0
 16 17  1  0  0  0  0
 16 47  1  0  0  0  0
 16 48  1  0  0  0  0
 17 18  1  0  0  0  0
 17 49  1  0  0  0  0
 17 50  1  0  0  0  0
 18 19  1  0  0  0  0
 19 20  2  0  0  0  0
 19 25  1  0  0  0  0
 20 21  1  0  0  0  0
 20 51  1  0  0  0  0
 21 22  2  0  0  0  0
 21 52  1  0  0  0  0
 22 23  1  0  0  0  0
 22 24  1  0  0  0  0
 24 25  2  0  0  0  0
 24 53  1  0  0  0  0
 25 54  1  0  0  0  0
 26 27  2  0  0  0  0
 28 29  2  0  0  0  0
 28 33  1  0  0  0  0
 29 30  1  0  0  0  0
 29 55  1  0  0  0  0
 30 31  2  0  0  0  0
 30 56  1  0  0  0  0
 31 32  1  0  0  0  0
 31 57  1  0  0  0  0
 32 33  2  0  0  0  0
 32 58  1  0  0  0  0
M  END
$$$$
