
 OpenBabel01122422393D

 42 45  0  0  0  0  0  0  0  0999 V2000
   -0.5049   10.2892    4.9120 N   0  0  0  0  0  0  0  0  0  0  0  0
   -0.4098    9.1426    4.7791 C   0  0  0  0  0  0  0  0  0  0  0  0
   -0.3065    7.7157    4.6541 C   0  0  0  0  0  0  0  0  0  0  0  0
    0.0328    7.1311    3.4226 C   0  0  0  0  0  0  0  0  0  0  0  0
    0.1738    5.7331    3.2840 C   0  0  0  0  0  0  0  0  0  0  0  0
    0.6356    5.1344    2.0138 C   0  0  0  0  0  0  0  0  0  0  0  0
    0.2644    3.8682    1.5799 C   0  0  0  0  0  0  0  0  0  0  0  0
    0.8368    3.3618    0.4167 C   0  0  0  0  0  0  0  0  0  0  0  0
    1.7579    4.1335   -0.2895 C   0  0  0  0  0  0  0  0  0  0  0  0
    2.0645    5.4023    0.1790 C   0  0  0  0  0  0  0  0  0  0  0  0
    2.9879    6.1785   -0.5479 N   0  0  0  0  0  0  0  0  0  0  0  0
    3.3231    7.4778   -0.2138 C   0  0  0  0  0  0  0  0  0  0  0  0
    2.8176    8.1032    0.7127 O   0  0  0  0  0  0  0  0  0  0  0  0
    4.3121    8.1050   -1.0695 C   0  0  0  0  0  0  0  0  0  0  0  0
    4.5752    7.9174   -2.4179 C   0  0  0  0  0  0  0  0  0  0  0  0
    5.4088    8.9844   -2.7838 C   0  0  0  0  0  0  0  0  0  0  0  0
    5.6886    9.7831   -1.7587 N   0  0  0  0  0  0  0  0  0  0  0  0
    5.1011    9.1896   -0.6833 N   0  0  0  0  0  0  0  0  0  0  0  0
    5.3682    9.6926    0.6143 C   0  0  0  0  0  0  0  0  0  0  0  0
    5.3652    8.8749    1.7466 C   0  0  0  0  0  0  0  0  0  0  0  0
    5.5621    9.4450    3.0012 C   0  0  0  0  0  0  0  0  0  0  0  0
    5.7746   10.8112    3.0766 C   0  0  0  0  0  0  0  0  0  0  0  0
    5.8360   11.6228    1.9981 N   0  0  0  0  0  0  0  0  0  0  0  0
    5.6386   11.0449    0.7861 C   0  0  0  0  0  0  0  0  0  0  0  0
    1.5132    5.8864    1.3083 N   0  0  0  0  0  0  0  0  0  0  0  0
   -0.0682    4.9433    4.4207 C   0  0  0  0  0  0  0  0  0  0  0  0
   -0.4084    5.5295    5.6367 C   0  0  0  0  0  0  0  0  0  0  0  0
   -0.6043    4.7467    6.7060 F   0  0  0  0  0  0  0  0  0  0  0  0
   -0.5230    6.9051    5.7683 C   0  0  0  0  0  0  0  0  0  0  0  0
    0.2160    7.7728    2.5579 H   0  0  0  0  0  0  0  0  0  0  0  0
   -0.4546    3.2715    2.1316 H   0  0  0  0  0  0  0  0  0  0  0  0
    0.5688    2.3684    0.0680 H   0  0  0  0  0  0  0  0  0  0  0  0
    2.2090    3.7353   -1.1913 H   0  0  0  0  0  0  0  0  0  0  0  0
    3.4231    5.7533   -1.3502 H   0  0  0  0  0  0  0  0  0  0  0  0
    4.1368    7.1885   -3.0840 H   0  0  0  0  0  0  0  0  0  0  0  0
    5.7963    9.2382   -3.7637 H   0  0  0  0  0  0  0  0  0  0  0  0
    5.2130    7.8021    1.6834 H   0  0  0  0  0  0  0  0  0  0  0  0
    5.5356    8.8365    3.8980 H   0  0  0  0  0  0  0  0  0  0  0  0
    5.9052   11.3028    4.0362 H   0  0  0  0  0  0  0  0  0  0  0  0
    5.6592   11.7388   -0.0508 H   0  0  0  0  0  0  0  0  0  0  0  0
    0.0453    3.8634    4.3932 H   0  0  0  0  0  0  0  0  0  0  0  0
   -0.7662    7.3277    6.7393 H   0  0  0  0  0  0  0  0  0  0  0  0
  1  2  3  0  0  0  0
  2  3  1  0  0  0  0
  3  4  2  0  0  0  0
  3 29  1  0  0  0  0
  4  5  1  0  0  0  0
  4 30  1  0  0  0  0
  5  6  1  0  0  0  0
  5 26  2  0  0  0  0
  6  7  2  0  0  0  0
  6 25  1  0  0  0  0
  7  8  1  0  0  0  0
  7 31  1  0  0  0  0
  8  9  2  0  0  0  0
  8 32  1  0  0  0  0
  9 10  1  0  0  0  0
  9 33  1  0  0  0  0
 10 11  1  0  0  0  0
 10 25  2  0  0  0  0
 11 12  1  0  0  0  0
 11 34  1  0  0  0  0
 12 13  2  0  0  0  0
 12 14  1  0  0  0  0
 14 15  2  0  0  0  0
 14 18  1  0  0  0  0
 15 16  1  0  0  0  0
 15 35  1  0  0  0  0
 16 17  2  0  0  0  0
 16 36  1  0  0  0  0
 17 18  1  0  0  0  0
 18 19  1  0  0  0  0
 19 20  2  0  0  0  0
 19 24  1  0  0  0  0
 20 21  1  0  0  0  0
 20 37  1  0  0  0  0
 21 22  2  0  0  0  0
 21 38  1  0  0  0  0
 22 23  1  0  0  0  0
 22 39  1  0  0  0  0
 23 24  2  0  0  0  0
 24 40  1  0  0  0  0
 26 27  1  0  0  0  0
 26 41  1  0  0  0  0
 27 28  1  0  0  0  0
 27 29  2  0  0  0  0
 29 42  1  0  0  0  0
M  END
$$$$
