
 OpenBabel01122422393D

 46 49  0  0  0  0  0  0  0  0999 V2000
    1.0265   -0.0076    1.4290 C   0  0  0  0  0  0  0  0  0  0  0  0
    2.4582    0.0292    1.2788 N   0  0  0  0  0  0  0  0  0  0  0  0
    3.2219   -1.1090    1.4132 C   0  0  0  0  0  0  0  0  0  0  0  0
    2.7412   -2.2028    1.6816 O   0  0  0  0  0  0  0  0  0  0  0  0
    4.6961   -0.9697    1.2145 C   0  0  0  0  0  0  0  0  0  0  0  0
    5.4872   -2.1177    1.3390 C   0  0  0  0  0  0  0  0  0  0  0  0
    6.8671   -2.0446    1.1322 C   0  0  0  0  0  0  0  0  0  0  0  0
    7.4831   -0.8251    0.8097 C   0  0  0  0  0  0  0  0  0  0  0  0
    8.9405   -0.8537    0.5148 C   0  0  0  0  0  0  0  0  0  0  0  0
    9.3805   -1.8921    0.0313 O   0  0  0  0  0  0  0  0  0  0  0  0
    9.6844    0.2638    0.8661 N   0  0  0  0  0  0  0  0  0  0  0  0
   11.0859    0.3862    0.6869 C   0  0  0  0  0  0  0  0  0  0  0  0
   11.8147   -0.4369   -0.1735 C   0  0  0  0  0  0  0  0  0  0  0  0
   13.2052   -0.3259   -0.2780 C   0  0  0  0  0  0  0  0  0  0  0  0
   13.9081    0.6129    0.4810 C   0  0  0  0  0  0  0  0  0  0  0  0
   15.3620    0.6903    0.4411 C   0  0  0  0  0  0  0  0  0  0  0  0
   16.2028   -0.1106   -0.3065 C   0  0  0  0  0  0  0  0  0  0  0  0
   17.4755    0.2809    0.0173 N   0  0  0  0  0  0  0  0  0  0  0  0
   18.6968   -0.2072   -0.4423 C   0  0  0  0  0  0  0  0  0  0  0  0
   19.8349    0.3240    0.0372 C   0  0  0  0  0  0  0  0  0  0  0  0
   19.7503    1.3883    1.0279 C   0  0  0  0  0  0  0  0  0  0  0  0
   18.5629    1.8569    1.4614 C   0  0  0  0  0  0  0  0  0  0  0  0
   17.3555    1.3048    0.9490 C   0  0  0  0  0  0  0  0  0  0  0  0
   16.0931    1.5754    1.2057 N   0  0  0  0  0  0  0  0  0  0  0  0
   13.1747    1.4665    1.3170 C   0  0  0  0  0  0  0  0  0  0  0  0
   11.7762    1.3648    1.4104 C   0  0  0  0  0  0  0  0  0  0  0  0
    6.7035    0.3257    0.6913 C   0  0  0  0  0  0  0  0  0  0  0  0
    5.3205    0.2405    0.8919 C   0  0  0  0  0  0  0  0  0  0  0  0
    4.6034    1.3661    0.7452 F   0  0  0  0  0  0  0  0  0  0  0  0
    0.6266    0.9842    1.2057 H   0  0  0  0  0  0  0  0  0  0  0  0
    0.7797   -0.2886    2.4563 H   0  0  0  0  0  0  0  0  0  0  0  0
    0.6056   -0.7442    0.7389 H   0  0  0  0  0  0  0  0  0  0  0  0
    2.9013    0.9159    1.0725 H   0  0  0  0  0  0  0  0  0  0  0  0
    5.0351   -3.0792    1.5798 H   0  0  0  0  0  0  0  0  0  0  0  0
    7.4640   -2.9542    1.2071 H   0  0  0  0  0  0  0  0  0  0  0  0
    9.2436    0.9707    1.4407 H   0  0  0  0  0  0  0  0  0  0  0  0
   11.3315   -1.1890   -0.7894 H   0  0  0  0  0  0  0  0  0  0  0  0
   13.7171   -1.0049   -0.9532 H   0  0  0  0  0  0  0  0  0  0  0  0
   16.0238   -0.9154   -1.0030 H   0  0  0  0  0  0  0  0  0  0  0  0
   18.6751   -1.0044   -1.1740 H   0  0  0  0  0  0  0  0  0  0  0  0
   20.8116   -0.0181   -0.2876 H   0  0  0  0  0  0  0  0  0  0  0  0
   20.6799    1.7944    1.4159 H   0  0  0  0  0  0  0  0  0  0  0  0
   18.4962    2.6440    2.2034 H   0  0  0  0  0  0  0  0  0  0  0  0
   13.6967    2.2069    1.9220 H   0  0  0  0  0  0  0  0  0  0  0  0
   11.2551    2.0340    2.0897 H   0  0  0  0  0  0  0  0  0  0  0  0
    7.1296    1.2801    0.4000 H   0  0  0  0  0  0  0  0  0  0  0  0
  1  2  1  0  0  0  0
  1 30  1  0  0  0  0
  1 31  1  0  0  0  0
  1 32  1  0  0  0  0
  2  3  1  0  0  0  0
  2 33  1  0  0  0  0
  3  4  2  0  0  0  0
  3  5  1  0  0  0  0
  5  6  2  0  0  0  0
  5 28  1  0  0  0  0
  6  7  1  0  0  0  0
  6 34  1  0  0  0  0
  7  8  2  0  0  0  0
  7 35  1  0  0  0  0
  8  9  1  0  0  0  0
  8 27  1  0  0  0  0
  9 10  2  0  0  0  0
  9 11  1  0  0  0  0
 11 12  1  0  0  0  0
 11 36  1  0  0  0  0
 12 13  2  0  0  0  0
 12 26  1  0  0  0  0
 13 14  1  0  0  0  0
 13 37  1  0  0  0  0
 14 15  2  0  0  0  0
 14 38  1  0  0  0  0
 15 16  1  0  0  0  0
 15 25  1  0  0  0  0
 16 17  2  0  0  0  0
 16 24  1  0  0  0  0
 17 18  1  0  0  0  0
 17 39  1  0  0  0  0
 18 19  1  0  0  0  0
 18 23  1  0  0  0  0
 19 20  2  0  0  0  0
 19 40  1  0  0  0  0
 20 21  1  0  0  0  0
 20 41  1  0  0  0  0
 21 22  2  0  0  0  0
 21 42  1  0  0  0  0
 22 23  1  0  0  0  0
 22 43  1  0  0  0  0
 23 24  2  0  0  0  0
 25 26  2  0  0  0  0
 25 44  1  0  0  0  0
 26 45  1  0  0  0  0
 27 28  2  0  0  0  0
 27 46  1  0  0  0  0
 28 29  1  0  0  0  0
M  END
$$$$
