
 OpenBabel01122422403D

 53 56  0  0  0  0  0  0  0  0999 V2000
    2.8331    1.2655    2.3728 C   0  0  0  0  0  0  0  0  0  0  0  0
    3.3142    0.6183    1.1056 C   0  0  0  0  0  0  0  0  0  0  0  0
    3.1391    1.2169   -0.0319 N   0  0  0  0  0  0  0  0  0  0  0  0
    3.5526    0.5560   -1.1980 C   0  0  0  0  0  0  0  0  0  0  0  0
    3.2947    1.1932   -2.4168 C   0  0  0  0  0  0  0  0  0  0  0  0
    3.6197    0.5822   -3.6257 C   0  0  0  0  0  0  0  0  0  0  0  0
    4.2145   -0.6743   -3.6225 C   0  0  0  0  0  0  0  0  0  0  0  0
    4.4971   -1.3141   -2.4121 C   0  0  0  0  0  0  0  0  0  0  0  0
    4.1736   -0.7083   -1.1881 C   0  0  0  0  0  0  0  0  0  0  0  0
    4.4352   -1.3299    0.0673 N   0  0  0  0  0  0  0  0  0  0  0  0
    5.0880   -2.6295    0.1643 C   0  0  0  0  0  0  0  0  0  0  0  0
    4.0973   -3.7926    0.0691 C   0  0  0  0  0  0  0  0  0  0  0  0
    4.7448   -5.0896    0.1084 N   0  0  0  0  0  0  0  0  0  0  0  0
    3.9914   -6.2480    0.0487 C   0  0  0  0  0  0  0  0  0  0  0  0
    2.7692   -6.2587   -0.0341 O   0  0  0  0  0  0  0  0  0  0  0  0
    4.7586   -7.5201    0.0465 C   0  0  0  0  0  0  0  0  0  0  0  0
    5.9920   -7.6103    0.6929 C   0  0  0  0  0  0  0  0  0  0  0  0
    6.7179   -8.8009    0.6508 C   0  0  0  0  0  0  0  0  0  0  0  0
    6.2150   -9.9312   -0.0015 C   0  0  0  0  0  0  0  0  0  0  0  0
    7.1208  -11.4719   -0.1067 S   0  0  0  0  0  0  0  0  0  0  0  0
    8.1199  -11.4175    1.4152 C   0  0  0  0  0  0  0  0  0  0  0  0
    9.0536  -12.5823    1.5420 C   0  0  0  0  0  0  0  0  0  0  0  0
    8.6647  -13.7760    2.1523 C   0  0  0  0  0  0  0  0  0  0  0  0
    9.5876  -14.8077    2.2884 C   0  0  0  0  0  0  0  0  0  0  0  0
   10.8708  -14.6118    1.8041 C   0  0  0  0  0  0  0  0  0  0  0  0
   11.2807  -13.4778    1.1986 N   0  0  0  0  0  0  0  0  0  0  0  0
   10.3629  -12.4948    1.0744 C   0  0  0  0  0  0  0  0  0  0  0  0
    4.9654   -9.8426   -0.6291 C   0  0  0  0  0  0  0  0  0  0  0  0
    4.2383   -8.6450   -0.6030 C   0  0  0  0  0  0  0  0  0  0  0  0
    3.9866   -0.7377    1.2448 C   0  0  0  0  0  0  0  0  0  0  0  0
    4.1002   -1.2262    2.3629 O   0  0  0  0  0  0  0  0  0  0  0  0
    2.3735    2.2340    2.1558 H   0  0  0  0  0  0  0  0  0  0  0  0
    3.6743    1.4168    3.0539 H   0  0  0  0  0  0  0  0  0  0  0  0
    2.0878    0.6225    2.8494 H   0  0  0  0  0  0  0  0  0  0  0  0
    2.8217    2.1723   -2.4156 H   0  0  0  0  0  0  0  0  0  0  0  0
    3.3976    1.0823   -4.5648 H   0  0  0  0  0  0  0  0  0  0  0  0
    4.4544   -1.1627   -4.5642 H   0  0  0  0  0  0  0  0  0  0  0  0
    4.9524   -2.2970   -2.4668 H   0  0  0  0  0  0  0  0  0  0  0  0
    5.6138   -2.6922    1.1266 H   0  0  0  0  0  0  0  0  0  0  0  0
    5.8809   -2.7115   -0.5884 H   0  0  0  0  0  0  0  0  0  0  0  0
    3.5247   -3.7410   -0.8633 H   0  0  0  0  0  0  0  0  0  0  0  0
    3.3755   -3.7522    0.8933 H   0  0  0  0  0  0  0  0  0  0  0  0
    5.7393   -5.1477   -0.0710 H   0  0  0  0  0  0  0  0  0  0  0  0
    6.4001   -6.7735    1.2510 H   0  0  0  0  0  0  0  0  0  0  0  0
    7.6855   -8.7991    1.1376 H   0  0  0  0  0  0  0  0  0  0  0  0
    7.4532  -11.3744    2.2841 H   0  0  0  0  0  0  0  0  0  0  0  0
    8.7315  -10.5114    1.4323 H   0  0  0  0  0  0  0  0  0  0  0  0
    7.6526  -13.9018    2.5285 H   0  0  0  0  0  0  0  0  0  0  0  0
    9.3139  -15.7421    2.7648 H   0  0  0  0  0  0  0  0  0  0  0  0
   11.6270  -15.3860    1.8932 H   0  0  0  0  0  0  0  0  0  0  0  0
   10.7285  -11.5968    0.5821 H   0  0  0  0  0  0  0  0  0  0  0  0
    4.5461  -10.7022   -1.1497 H   0  0  0  0  0  0  0  0  0  0  0  0
    3.2659   -8.5905   -1.0905 H   0  0  0  0  0  0  0  0  0  0  0  0
  1  2  1  0  0  0  0
  1 32  1  0  0  0  0
  1 33  1  0  0  0  0
  1 34  1  0  0  0  0
  2  3  2  0  0  0  0
  2 30  1  0  0  0  0
  3  4  1  0  0  0  0
  4  5  2  0  0  0  0
  4  9  1  0  0  0  0
  5  6  1  0  0  0  0
  5 35  1  0  0  0  0
  6  7  2  0  0  0  0
  6 36  1  0  0  0  0
  7  8  1  0  0  0  0
  7 37  1  0  0  0  0
  8  9  2  0  0  0  0
  8 38  1  0  0  0  0
  9 10  1  0  0  0  0
 10 11  1  0  0  0  0
 10 30  1  0  0  0  0
 11 12  1  0  0  0  0
 11 39  1  0  0  0  0
 11 40  1  0  0  0  0
 12 13  1  0  0  0  0
 12 41  1  0  0  0  0
 12 42  1  0  0  0  0
 13 14  1  0  0  0  0
 13 43  1  0  0  0  0
 14 15  2  0  0  0  0
 14 16  1  0  0  0  0
 16 17  2  0  0  0  0
 16 29  1  0  0  0  0
 17 18  1  0  0  0  0
 17 44  1  0  0  0  0
 18 19  2  0  0  0  0
 18 45  1  0  0  0  0
 19 20  1  0  0  0  0
 19 28  1  0  0  0  0
 20 21  1  0  0  0  0
 21 22  1  0  0  0  0
 21 46  1  0  0  0  0
 21 47  1  0  0  0  0
 22 23  2  0  0  0  0
 22 27  1  0  0  0  0
 23 24  1  0  0  0  0
 23 48  1  0  0  0  0
 24 25  2  0  0  0  0
 24 49  1  0  0  0  0
 25 26  1  0  0  0  0
 25 50  1  0  0  0  0
 26 27  2  0  0  0  0
 27 51  1  0  0  0  0
 28 29  2  0  0  0  0
 28 52  1  0  0  0  0
 29 53  1  0  0  0  0
 30 31  2  0  0  0  0
M  END
$$$$
