
 OpenBabel01122422403D

 51 54  0  0  0  0  0  0  0  0999 V2000
    3.2775   -3.2039   -0.8017 N   0  0  0  0  0  0  0  0  0  0  0  0
    2.5770   -2.0673   -1.0813 C   0  0  0  0  0  0  0  0  0  0  0  0
    1.3599   -2.1303   -1.2471 O   0  0  0  0  0  0  0  0  0  0  0  0
    3.3591   -0.7480   -1.2477 C   0  0  0  0  0  0  0  0  0  0  0  0
    4.7723   -0.6846   -0.8159 N   0  0  0  0  0  0  0  0  0  0  0  0
    5.0627    0.2588    0.2758 C   0  0  0  0  0  0  0  0  0  0  0  0
    6.0789    1.3485    0.0109 C   0  0  0  0  0  0  0  0  0  0  0  0
    6.5468    1.6871   -1.2575 C   0  0  0  0  0  0  0  0  0  0  0  0
    7.5951    2.6109   -1.4115 C   0  0  0  0  0  0  0  0  0  0  0  0
    8.1578    3.2906   -0.3182 C   0  0  0  0  0  0  0  0  0  0  0  0
    9.2721    4.2544   -0.4657 C   0  0  0  0  0  0  0  0  0  0  0  0
    9.4592    4.9945   -1.6476 C   0  0  0  0  0  0  0  0  0  0  0  0
   10.5041    5.9155   -1.7801 C   0  0  0  0  0  0  0  0  0  0  0  0
   11.3876    6.1274   -0.7272 C   0  0  0  0  0  0  0  0  0  0  0  0
   11.2359    5.4053    0.4500 C   0  0  0  0  0  0  0  0  0  0  0  0
   10.1986    4.4738    0.5730 C   0  0  0  0  0  0  0  0  0  0  0  0
    7.5905    3.0142    0.9447 C   0  0  0  0  0  0  0  0  0  0  0  0
    6.5857    2.0552    1.1098 C   0  0  0  0  0  0  0  0  0  0  0  0
    5.6799   -1.4760   -1.5407 C   0  0  0  0  0  0  0  0  0  0  0  0
    5.2570   -2.2650   -2.3895 O   0  0  0  0  0  0  0  0  0  0  0  0
    7.1558   -1.4678   -1.3172 C   0  0  0  0  0  0  0  0  0  0  0  0
    7.6853   -1.4213   -0.0229 C   0  0  0  0  0  0  0  0  0  0  0  0
    9.0659   -1.3577    0.1921 C   0  0  0  0  0  0  0  0  0  0  0  0
    9.9546   -1.4436   -0.8840 C   0  0  0  0  0  0  0  0  0  0  0  0
   11.3478   -1.4174   -0.6381 N   0  0  0  0  0  0  0  0  0  0  0  0
   12.3980   -1.5171   -1.5154 C   0  0  0  0  0  0  0  0  0  0  0  0
   13.5266   -1.4756   -0.8474 N   0  0  0  0  0  0  0  0  0  0  0  0
   13.1766   -1.3403    0.4690 N   0  0  0  0  0  0  0  0  0  0  0  0
   11.8594   -1.3003    0.6086 N   0  0  0  0  0  0  0  0  0  0  0  0
    9.4451   -1.5723   -2.1800 C   0  0  0  0  0  0  0  0  0  0  0  0
    8.0554   -1.5678   -2.3974 C   0  0  0  0  0  0  0  0  0  0  0  0
    7.5635   -1.6572   -4.0572 Cl  0  0  0  0  0  0  0  0  0  0  0  0
    2.7275   -4.0495   -0.8851 H   0  0  0  0  0  0  0  0  0  0  0  0
    4.1875   -3.2650   -1.2538 H   0  0  0  0  0  0  0  0  0  0  0  0
    2.7812   -0.0102   -0.6777 H   0  0  0  0  0  0  0  0  0  0  0  0
    3.3163   -0.4542   -2.3014 H   0  0  0  0  0  0  0  0  0  0  0  0
    5.3628   -0.3387    1.1415 H   0  0  0  0  0  0  0  0  0  0  0  0
    4.1383    0.7613    0.5830 H   0  0  0  0  0  0  0  0  0  0  0  0
    6.1518    1.2108   -2.1495 H   0  0  0  0  0  0  0  0  0  0  0  0
    7.9820    2.7688   -2.4136 H   0  0  0  0  0  0  0  0  0  0  0  0
    8.7793    4.8795   -2.4881 H   0  0  0  0  0  0  0  0  0  0  0  0
   10.6196    6.4739   -2.7056 H   0  0  0  0  0  0  0  0  0  0  0  0
   12.1912    6.8519   -0.8248 H   0  0  0  0  0  0  0  0  0  0  0  0
   11.9230    5.5625    1.2777 H   0  0  0  0  0  0  0  0  0  0  0  0
   10.1342    3.9141    1.5033 H   0  0  0  0  0  0  0  0  0  0  0  0
    7.9316    3.5440    1.8346 H   0  0  0  0  0  0  0  0  0  0  0  0
    6.2116    1.8596    2.1127 H   0  0  0  0  0  0  0  0  0  0  0  0
    7.0452   -1.4278    0.8507 H   0  0  0  0  0  0  0  0  0  0  0  0
    9.4236   -1.2455    1.2156 H   0  0  0  0  0  0  0  0  0  0  0  0
   12.2976   -1.6204   -2.5835 H   0  0  0  0  0  0  0  0  0  0  0  0
   10.0993   -1.6701   -3.0431 H   0  0  0  0  0  0  0  0  0  0  0  0
  1  2  1  0  0  0  0
  1 33  1  0  0  0  0
  1 34  1  0  0  0  0
  2  3  2  0  0  0  0
  2  4  1  0  0  0  0
  4  5  1  0  0  0  0
  4 35  1  0  0  0  0
  4 36  1  0  0  0  0
  5  6  1  0  0  0  0
  5 19  1  0  0  0  0
  6  7  1  0  0  0  0
  6 37  1  0  0  0  0
  6 38  1  0  0  0  0
  7  8  2  0  0  0  0
  7 18  1  0  0  0  0
  8  9  1  0  0  0  0
  8 39  1  0  0  0  0
  9 10  2  0  0  0  0
  9 40  1  0  0  0  0
 10 11  1  0  0  0  0
 10 17  1  0  0  0  0
 11 12  2  0  0  0  0
 11 16  1  0  0  0  0
 12 13  1  0  0  0  0
 12 41  1  0  0  0  0
 13 14  2  0  0  0  0
 13 42  1  0  0  0  0
 14 15  1  0  0  0  0
 14 43  1  0  0  0  0
 15 16  2  0  0  0  0
 15 44  1  0  0  0  0
 16 45  1  0  0  0  0
 17 18  2  0  0  0  0
 17 46  1  0  0  0  0
 18 47  1  0  0  0  0
 19 20  2  0  0  0  0
 19 21  1  0  0  0  0
 21 22  2  0  0  0  0
 21 31  1  0  0  0  0
 22 23  1  0  0  0  0
 22 48  1  0  0  0  0
 23 24  2  0  0  0  0
 23 49  1  0  0  0  0
 24 25  1  0  0  0  0
 24 30  1  0  0  0  0
 25 26  1  0  0  0  0
 25 29  1  0  0  0  0
 26 27  2  0  0  0  0
 26 50  1  0  0  0  0
 27 28  1  0  0  0  0
 28 29  2  0  0  0  0
 30 31  2  0  0  0  0
 30 51  1  0  0  0  0
 31 32  1  0  0  0  0
M  END
$$$$
