
 OpenBabel01122422403D

 48 51  0  0  0  0  0  0  0  0999 V2000
   -0.0292   -0.7110   -1.9176 C   0  0  0  0  0  0  0  0  0  0  0  0
    1.0383   -0.5578   -0.9491 N   0  0  0  0  0  0  0  0  0  0  0  0
    1.3276    0.5737   -0.2081 C   0  0  0  0  0  0  0  0  0  0  0  0
    0.5729    1.8163   -0.1764 C   0  0  0  0  0  0  0  0  0  0  0  0
   -0.6523    1.8535   -0.2363 O   0  0  0  0  0  0  0  0  0  0  0  0
    1.3823    2.9320   -0.1085 N   0  0  0  0  0  0  0  0  0  0  0  0
    0.9196    4.2452   -0.0216 C   0  0  0  0  0  0  0  0  0  0  0  0
   -0.1513    4.5991    0.7905 C   0  0  0  0  0  0  0  0  0  0  0  0
   -0.5570    5.9341    0.8236 C   0  0  0  0  0  0  0  0  0  0  0  0
    0.0775    6.8633    0.0073 C   0  0  0  0  0  0  0  0  0  0  0  0
   -0.3784    8.1555    0.0571 O   0  0  0  0  0  0  0  0  0  0  0  0
   -0.4568    8.9005   -1.0988 C   0  0  0  0  0  0  0  0  0  0  0  0
   -0.6819    8.3707   -2.3706 C   0  0  0  0  0  0  0  0  0  0  0  0
   -0.7425    9.2179   -3.4861 C   0  0  0  0  0  0  0  0  0  0  0  0
   -0.9112    8.5939   -4.8231 C   0  0  0  0  0  0  0  0  0  0  0  0
   -1.4937    9.3437   -5.8035 N   0  0  0  0  0  0  0  0  0  0  0  0
   -0.5746    7.4364   -5.0371 O   0  0  0  0  0  0  0  0  0  0  0  0
   -0.6076   10.6020   -3.3226 C   0  0  0  0  0  0  0  0  0  0  0  0
   -0.4368   11.1355   -2.0439 C   0  0  0  0  0  0  0  0  0  0  0  0
   -0.3654   10.2863   -0.9371 C   0  0  0  0  0  0  0  0  0  0  0  0
    1.1738    6.4287   -0.7265 C   0  0  0  0  0  0  0  0  0  0  0  0
    1.6272    5.1482   -0.7309 N   0  0  0  0  0  0  0  0  0  0  0  0
    2.4507    0.2688    0.5474 C   0  0  0  0  0  0  0  0  0  0  0  0
    2.8468   -1.0685    0.2769 C   0  0  0  0  0  0  0  0  0  0  0  0
    3.8764   -1.9096    0.7403 C   0  0  0  0  0  0  0  0  0  0  0  0
    4.7847   -1.5105    1.6935 O   0  0  0  0  0  0  0  0  0  0  0  0
    4.0065   -3.2042    0.2443 C   0  0  0  0  0  0  0  0  0  0  0  0
    3.1159   -3.6748   -0.7151 C   0  0  0  0  0  0  0  0  0  0  0  0
    2.0780   -2.8679   -1.1921 C   0  0  0  0  0  0  0  0  0  0  0  0
    1.9593   -1.5604   -0.6836 C   0  0  0  0  0  0  0  0  0  0  0  0
   -0.5665    0.2249   -2.0635 H   0  0  0  0  0  0  0  0  0  0  0  0
   -0.7105   -1.4850   -1.5542 H   0  0  0  0  0  0  0  0  0  0  0  0
    0.4165   -1.0148   -2.8698 H   0  0  0  0  0  0  0  0  0  0  0  0
    2.3050    2.8533   -0.5122 H   0  0  0  0  0  0  0  0  0  0  0  0
   -0.6474    3.8662    1.4182 H   0  0  0  0  0  0  0  0  0  0  0  0
   -1.3709    6.2400    1.4746 H   0  0  0  0  0  0  0  0  0  0  0  0
   -0.8140    7.3009   -2.5159 H   0  0  0  0  0  0  0  0  0  0  0  0
   -2.0045   10.1911   -5.6073 H   0  0  0  0  0  0  0  0  0  0  0  0
   -1.7006    8.8562   -6.6660 H   0  0  0  0  0  0  0  0  0  0  0  0
   -0.6110   11.2718   -4.1780 H   0  0  0  0  0  0  0  0  0  0  0  0
   -0.3446   12.2108   -1.9092 H   0  0  0  0  0  0  0  0  0  0  0  0
   -0.2343   10.7084    0.0568 H   0  0  0  0  0  0  0  0  0  0  0  0
    1.7377    7.1055   -1.3617 H   0  0  0  0  0  0  0  0  0  0  0  0
    2.9116    0.9400    1.2606 H   0  0  0  0  0  0  0  0  0  0  0  0
    4.5422   -0.6104    1.9642 H   0  0  0  0  0  0  0  0  0  0  0  0
    4.8042   -3.8437    0.6110 H   0  0  0  0  0  0  0  0  0  0  0  0
    3.2274   -4.6867   -1.0970 H   0  0  0  0  0  0  0  0  0  0  0  0
    1.3836   -3.2522   -1.9347 H   0  0  0  0  0  0  0  0  0  0  0  0
  1  2  1  0  0  0  0
  1 31  1  0  0  0  0
  1 32  1  0  0  0  0
  1 33  1  0  0  0  0
  2  3  1  0  0  0  0
  2 30  1  0  0  0  0
  3  4  1  0  0  0  0
  3 23  2  0  0  0  0
  4  5  2  0  0  0  0
  4  6  1  0  0  0  0
  6  7  1  0  0  0  0
  6 34  1  0  0  0  0
  7  8  2  0  0  0  0
  7 22  1  0  0  0  0
  8  9  1  0  0  0  0
  8 35  1  0  0  0  0
  9 10  2  0  0  0  0
  9 36  1  0  0  0  0
 10 11  1  0  0  0  0
 10 21  1  0  0  0  0
 11 12  1  0  0  0  0
 12 13  2  0  0  0  0
 12 20  1  0  0  0  0
 13 14  1  0  0  0  0
 13 37  1  0  0  0  0
 14 15  1  0  0  0  0
 14 18  2  0  0  0  0
 15 16  1  0  0  0  0
 15 17  2  0  0  0  0
 16 38  1  0  0  0  0
 16 39  1  0  0  0  0
 18 19  1  0  0  0  0
 18 40  1  0  0  0  0
 19 20  2  0  0  0  0
 19 41  1  0  0  0  0
 20 42  1  0  0  0  0
 21 22  2  0  0  0  0
 21 43  1  0  0  0  0
 23 24  1  0  0  0  0
 23 44  1  0  0  0  0
 24 25  2  0  0  0  0
 24 30  1  0  0  0  0
 25 26  1  0  0  0  0
 25 27  1  0  0  0  0
 26 45  1  0  0  0  0
 27 28  2  0  0  0  0
 27 46  1  0  0  0  0
 28 29  1  0  0  0  0
 28 47  1  0  0  0  0
 29 30  2  0  0  0  0
 29 48  1  0  0  0  0
M  END
$$$$
