
 OpenBabel01122422403D

 47 50  0  0  0  0  0  0  0  0999 V2000
    1.4236    1.1740   -0.4979 N   0  0  0  0  0  0  0  0  0  0  0  0
    0.4817    0.2837   -0.1668 C   0  0  0  0  0  0  0  0  0  0  0  0
    0.7719   -0.7470    0.6141 N   0  0  0  0  0  0  0  0  0  0  0  0
   -0.3817   -1.4073    0.7005 N   0  0  0  0  0  0  0  0  0  0  0  0
   -1.4193   -0.8822   -0.0260 C   0  0  0  0  0  0  0  0  0  0  0  0
   -2.7284   -1.5049   -0.0567 C   0  0  0  0  0  0  0  0  0  0  0  0
   -3.7771   -0.8944   -0.2707 O   0  0  0  0  0  0  0  0  0  0  0  0
   -2.7254   -2.8691    0.1595 N   0  0  0  0  0  0  0  0  0  0  0  0
   -3.9307   -3.6728    0.0986 C   0  0  0  0  0  0  0  0  0  0  0  0
   -4.4901   -3.9198    1.4719 C   0  0  0  0  0  0  0  0  0  0  0  0
   -5.4380   -3.0480    2.0139 C   0  0  0  0  0  0  0  0  0  0  0  0
   -5.9241   -3.2381    3.3146 C   0  0  0  0  0  0  0  0  0  0  0  0
   -5.4791   -4.3008    4.1240 C   0  0  0  0  0  0  0  0  0  0  0  0
   -5.9700   -4.4446    5.5111 C   0  0  0  0  0  0  0  0  0  0  0  0
   -5.2145   -5.0135    6.5381 C   0  0  0  0  0  0  0  0  0  0  0  0
   -5.7449   -5.0856    7.8256 C   0  0  0  0  0  0  0  0  0  0  0  0
   -7.0142   -4.5826    8.0676 C   0  0  0  0  0  0  0  0  0  0  0  0
   -7.7011   -4.0225    7.0068 C   0  0  0  0  0  0  0  0  0  0  0  0
   -7.2103   -3.9414    5.7499 N   0  0  0  0  0  0  0  0  0  0  0  0
   -4.5526   -5.1813    3.5460 C   0  0  0  0  0  0  0  0  0  0  0  0
   -4.1087   -6.2533    4.2232 F   0  0  0  0  0  0  0  0  0  0  0  0
   -4.0570   -4.9990    2.2514 C   0  0  0  0  0  0  0  0  0  0  0  0
   -0.8903    0.2859   -0.5861 C   0  0  0  0  0  0  0  0  0  0  0  0
   -1.5754    1.2478   -1.4596 C   0  0  0  0  0  0  0  0  0  0  0  0
   -1.2337    2.6119   -1.4132 C   0  0  0  0  0  0  0  0  0  0  0  0
   -1.7619    3.5287   -2.3285 C   0  0  0  0  0  0  0  0  0  0  0  0
   -2.6935    3.1095   -3.2694 C   0  0  0  0  0  0  0  0  0  0  0  0
   -3.0878    1.7743   -3.2974 C   0  0  0  0  0  0  0  0  0  0  0  0
   -2.5208    0.8486   -2.4134 C   0  0  0  0  0  0  0  0  0  0  0  0
    2.3137    1.1324   -0.0191 H   0  0  0  0  0  0  0  0  0  0  0  0
    1.2526    2.0143   -1.0306 H   0  0  0  0  0  0  0  0  0  0  0  0
   -0.3989   -2.2304    1.2925 H   0  0  0  0  0  0  0  0  0  0  0  0
   -1.8637   -3.3770    0.2611 H   0  0  0  0  0  0  0  0  0  0  0  0
   -3.6553   -4.6316   -0.3661 H   0  0  0  0  0  0  0  0  0  0  0  0
   -4.6770   -3.2076   -0.5514 H   0  0  0  0  0  0  0  0  0  0  0  0
   -5.8014   -2.2004    1.4304 H   0  0  0  0  0  0  0  0  0  0  0  0
   -6.6558   -2.5318    3.7037 H   0  0  0  0  0  0  0  0  0  0  0  0
   -4.2126   -5.3889    6.3597 H   0  0  0  0  0  0  0  0  0  0  0  0
   -5.1646   -5.5273    8.6306 H   0  0  0  0  0  0  0  0  0  0  0  0
   -7.4550   -4.6217    9.0573 H   0  0  0  0  0  0  0  0  0  0  0  0
   -8.6957   -3.6070    7.1419 H   0  0  0  0  0  0  0  0  0  0  0  0
   -3.3339   -5.7126    1.8684 H   0  0  0  0  0  0  0  0  0  0  0  0
   -0.5457    2.9879   -0.6626 H   0  0  0  0  0  0  0  0  0  0  0  0
   -1.4446    4.5691   -2.3000 H   0  0  0  0  0  0  0  0  0  0  0  0
   -3.1170    3.8198   -3.9740 H   0  0  0  0  0  0  0  0  0  0  0  0
   -3.8344    1.4444   -4.0157 H   0  0  0  0  0  0  0  0  0  0  0  0
   -2.8311   -0.1877   -2.4937 H   0  0  0  0  0  0  0  0  0  0  0  0
  1  2  1  0  0  0  0
  1 30  1  0  0  0  0
  1 31  1  0  0  0  0
  2  3  2  0  0  0  0
  2 23  1  0  0  0  0
  3  4  1  0  0  0  0
  4  5  1  0  0  0  0
  4 32  1  0  0  0  0
  5  6  1  0  0  0  0
  5 23  2  0  0  0  0
  6  7  2  0  0  0  0
  6  8  1  0  0  0  0
  8  9  1  0  0  0  0
  8 33  1  0  0  0  0
  9 10  1  0  0  0  0
  9 34  1  0  0  0  0
  9 35  1  0  0  0  0
 10 11  2  0  0  0  0
 10 22  1  0  0  0  0
 11 12  1  0  0  0  0
 11 36  1  0  0  0  0
 12 13  2  0  0  0  0
 12 37  1  0  0  0  0
 13 14  1  0  0  0  0
 13 20  1  0  0  0  0
 14 15  2  0  0  0  0
 14 19  1  0  0  0  0
 15 16  1  0  0  0  0
 15 38  1  0  0  0  0
 16 17  2  0  0  0  0
 16 39  1  0  0  0  0
 17 18  1  0  0  0  0
 17 40  1  0  0  0  0
 18 19  2  0  0  0  0
 18 41  1  0  0  0  0
 20 21  1  0  0  0  0
 20 22  2  0  0  0  0
 22 42  1  0  0  0  0
 23 24  1  0  0  0  0
 24 25  2  0  0  0  0
 24 29  1  0  0  0  0
 25 26  1  0  0  0  0
 25 43  1  0  0  0  0
 26 27  2  0  0  0  0
 26 44  1  0  0  0  0
 27 28  1  0  0  0  0
 27 45  1  0  0  0  0
 28 29  2  0  0  0  0
 28 46  1  0  0  0  0
 29 47  1  0  0  0  0
M  END
$$$$
