
 OpenBabel01122422403D

 56 58  0  0  0  0  0  0  0  0999 V2000
    0.4156   -0.9780   -7.2932 C   0  0  0  0  0  0  0  0  0  0  0  0
   -0.3238   -0.3876   -8.3606 O   0  0  0  0  0  0  0  0  0  0  0  0
   -0.4664    0.9740   -8.3180 C   0  0  0  0  0  0  0  0  0  0  0  0
    0.0220    1.7999   -7.3073 C   0  0  0  0  0  0  0  0  0  0  0  0
   -0.1472    3.1856   -7.3532 C   0  0  0  0  0  0  0  0  0  0  0  0
    0.3699    4.0444   -6.3518 N   0  0  0  0  0  0  0  0  0  0  0  0
    1.1074    3.6759   -5.2335 C   0  0  0  0  0  0  0  0  0  0  0  0
    1.4717    2.5372   -4.9369 O   0  0  0  0  0  0  0  0  0  0  0  0
    1.5244    4.8436   -4.3397 C   0  0  0  0  0  0  0  0  0  0  0  0
    0.3744    5.5365   -3.7909 N   0  0  0  0  0  0  0  0  0  0  0  0
   -0.2430    6.5170   -4.5111 C   0  0  0  0  0  0  0  0  0  0  0  0
    0.1430    6.8676   -5.6184 O   0  0  0  0  0  0  0  0  0  0  0  0
   -1.3458    7.0013   -3.8802 N   0  0  0  0  0  0  0  0  0  0  0  0
   -2.0497    8.1452   -4.4137 C   0  0  0  0  0  0  0  0  0  0  0  0
   -3.5130    8.0949   -4.0899 C   0  0  0  0  0  0  0  0  0  0  0  0
   -4.4695    7.9938   -5.1037 C   0  0  0  0  0  0  0  0  0  0  0  0
   -5.8345    7.9459   -4.7910 C   0  0  0  0  0  0  0  0  0  0  0  0
   -6.2918    8.0063   -3.4609 C   0  0  0  0  0  0  0  0  0  0  0  0
   -7.7369    7.9622   -3.1301 C   0  0  0  0  0  0  0  0  0  0  0  0
   -8.2002    7.3578   -1.9458 C   0  0  0  0  0  0  0  0  0  0  0  0
   -9.5587    7.3426   -1.6130 C   0  0  0  0  0  0  0  0  0  0  0  0
  -10.4919    7.9185   -2.4675 C   0  0  0  0  0  0  0  0  0  0  0  0
  -10.0670    8.5070   -3.6537 C   0  0  0  0  0  0  0  0  0  0  0  0
   -8.7058    8.5319   -3.9773 C   0  0  0  0  0  0  0  0  0  0  0  0
   -5.3150    8.1155   -2.4563 C   0  0  0  0  0  0  0  0  0  0  0  0
   -3.9574    8.1533   -2.7711 C   0  0  0  0  0  0  0  0  0  0  0  0
   -3.0656    8.2394   -1.7723 F   0  0  0  0  0  0  0  0  0  0  0  0
   -0.8484    3.7474   -8.4331 C   0  0  0  0  0  0  0  0  0  0  0  0
   -1.3449    2.9278   -9.4555 C   0  0  0  0  0  0  0  0  0  0  0  0
   -2.0201    3.3337  -10.5745 O   0  0  0  0  0  0  0  0  0  0  0  0
   -2.2410    4.7249  -10.7491 C   0  0  0  0  0  0  0  0  0  0  0  0
   -1.1508    1.5449   -9.3866 C   0  0  0  0  0  0  0  0  0  0  0  0
    0.5021   -2.0473   -7.4939 H   0  0  0  0  0  0  0  0  0  0  0  0
   -0.1168   -0.8595   -6.3412 H   0  0  0  0  0  0  0  0  0  0  0  0
    1.4302   -0.5689   -7.2337 H   0  0  0  0  0  0  0  0  0  0  0  0
    0.5447    1.3512   -6.4764 H   0  0  0  0  0  0  0  0  0  0  0  0
    0.2048    5.0451   -6.4691 H   0  0  0  0  0  0  0  0  0  0  0  0
    2.1595    5.5298   -4.9089 H   0  0  0  0  0  0  0  0  0  0  0  0
    2.0986    4.4517   -3.4938 H   0  0  0  0  0  0  0  0  0  0  0  0
   -0.2039    5.0225   -3.1396 H   0  0  0  0  0  0  0  0  0  0  0  0
   -1.3847    6.8833   -2.8772 H   0  0  0  0  0  0  0  0  0  0  0  0
   -1.8970    8.2010   -5.4976 H   0  0  0  0  0  0  0  0  0  0  0  0
   -1.5995    9.0459   -3.9813 H   0  0  0  0  0  0  0  0  0  0  0  0
   -4.1641    7.9467   -6.1473 H   0  0  0  0  0  0  0  0  0  0  0  0
   -6.5406    7.8472   -5.6136 H   0  0  0  0  0  0  0  0  0  0  0  0
   -7.5048    6.8781   -1.2605 H   0  0  0  0  0  0  0  0  0  0  0  0
   -9.8835    6.8784   -0.6853 H   0  0  0  0  0  0  0  0  0  0  0  0
  -11.5475    7.9083   -2.2099 H   0  0  0  0  0  0  0  0  0  0  0  0
  -10.7922    8.9556   -4.3278 H   0  0  0  0  0  0  0  0  0  0  0  0
   -8.4132    9.0229   -4.9026 H   0  0  0  0  0  0  0  0  0  0  0  0
   -5.5918    8.1848   -1.4082 H   0  0  0  0  0  0  0  0  0  0  0  0
   -0.9938    4.8218   -8.4666 H   0  0  0  0  0  0  0  0  0  0  0  0
   -2.6448    4.8713  -11.7562 H   0  0  0  0  0  0  0  0  0  0  0  0
   -1.3104    5.2973  -10.6846 H   0  0  0  0  0  0  0  0  0  0  0  0
   -2.9835    5.0888  -10.0326 H   0  0  0  0  0  0  0  0  0  0  0  0
   -1.5331    0.9064  -10.1795 H   0  0  0  0  0  0  0  0  0  0  0  0
  1  2  1  0  0  0  0
  1 33  1  0  0  0  0
  1 34  1  0  0  0  0
  1 35  1  0  0  0  0
  2  3  1  0  0  0  0
  3  4  2  0  0  0  0
  3 32  1  0  0  0  0
  4  5  1  0  0  0  0
  4 36  1  0  0  0  0
  5  6  1  0  0  0  0
  5 28  2  0  0  0  0
  6  7  1  0  0  0  0
  6 37  1  0  0  0  0
  7  8  2  0  0  0  0
  7  9  1  0  0  0  0
  9 10  1  0  0  0  0
  9 38  1  0  0  0  0
  9 39  1  0  0  0  0
 10 11  1  0  0  0  0
 10 40  1  0  0  0  0
 11 12  2  0  0  0  0
 11 13  1  0  0  0  0
 13 14  1  0  0  0  0
 13 41  1  0  0  0  0
 14 15  1  0  0  0  0
 14 42  1  0  0  0  0
 14 43  1  0  0  0  0
 15 16  2  0  0  0  0
 15 26  1  0  0  0  0
 16 17  1  0  0  0  0
 16 44  1  0  0  0  0
 17 18  2  0  0  0  0
 17 45  1  0  0  0  0
 18 19  1  0  0  0  0
 18 25  1  0  0  0  0
 19 20  2  0  0  0  0
 19 24  1  0  0  0  0
 20 21  1  0  0  0  0
 20 46  1  0  0  0  0
 21 22  2  0  0  0  0
 21 47  1  0  0  0  0
 22 23  1  0  0  0  0
 22 48  1  0  0  0  0
 23 24  2  0  0  0  0
 23 49  1  0  0  0  0
 24 50  1  0  0  0  0
 25 26  2  0  0  0  0
 25 51  1  0  0  0  0
 26 27  1  0  0  0  0
 28 29  1  0  0  0  0
 28 52  1  0  0  0  0
 29 30  1  0  0  0  0
 29 32  2  0  0  0  0
 30 31  1  0  0  0  0
 31 53  1  0  0  0  0
 31 54  1  0  0  0  0
 31 55  1  0  0  0  0
 32 56  1  0  0  0  0
M  END
$$$$
