
 OpenBabel01122422403D

 39 41  0  0  0  0  0  0  0  0999 V2000
    1.0810   -0.0576    0.0114 N   0  0  0  0  0  0  0  0  0  0  0  0
    2.3419   -0.0576    0.0114 C   0  0  0  0  0  0  0  0  0  0  0  0
    3.8619   -0.0576    0.0114 C   0  0  0  0  0  0  0  0  0  0  0  0
    4.5696    1.0647    0.2896 C   0  0  0  0  0  0  0  0  0  0  0  0
    3.9397    2.2604    0.6188 N   0  0  0  0  0  0  0  0  0  0  0  0
    4.4974    3.5204    0.7772 C   0  0  0  0  0  0  0  0  0  0  0  0
    5.6651    3.8407    0.6007 O   0  0  0  0  0  0  0  0  0  0  0  0
    3.5769    4.5678    1.2736 C   0  0  0  0  0  0  0  0  0  0  0  0
    2.2814    4.8133    0.8018 C   0  0  0  0  0  0  0  0  0  0  0  0
    1.6507    4.1306   -0.3690 C   0  0  0  0  0  0  0  0  0  0  0  0
    2.5191    3.4206   -1.1378 F   0  0  0  0  0  0  0  0  0  0  0  0
    0.7146    3.2320    0.0345 F   0  0  0  0  0  0  0  0  0  0  0  0
    1.0339    4.9836   -1.2257 F   0  0  0  0  0  0  0  0  0  0  0  0
    1.5106    5.7527    1.4789 C   0  0  0  0  0  0  0  0  0  0  0  0
    0.2435    5.9781    1.1170 F   0  0  0  0  0  0  0  0  0  0  0  0
    2.0481    6.4453    2.5521 C   0  0  0  0  0  0  0  0  0  0  0  0
    3.3152    6.2753    2.9823 N   0  0  0  0  0  0  0  0  0  0  0  0
    4.0549    5.3441    2.3288 C   0  0  0  0  0  0  0  0  0  0  0  0
    6.0131    0.9824    0.3350 C   0  0  0  0  0  0  0  0  0  0  0  0
    6.6379   -0.1920    0.2298 C   0  0  0  0  0  0  0  0  0  0  0  0
    5.9419   -1.3731    0.0514 N   0  0  0  0  0  0  0  0  0  0  0  0
    6.6431   -2.6116   -0.0244 C   0  0  0  0  0  0  0  0  0  0  0  0
    7.7560   -2.7345   -0.8652 C   0  0  0  0  0  0  0  0  0  0  0  0
    8.3960   -3.9653   -1.0026 C   0  0  0  0  0  0  0  0  0  0  0  0
    7.9581   -5.0649   -0.2660 C   0  0  0  0  0  0  0  0  0  0  0  0
    6.8847   -4.9362    0.6135 C   0  0  0  0  0  0  0  0  0  0  0  0
    6.2218   -3.7154    0.7271 C   0  0  0  0  0  0  0  0  0  0  0  0
    4.5428   -1.3813   -0.0982 C   0  0  0  0  0  0  0  0  0  0  0  0
    3.8588   -2.3822   -0.3090 O   0  0  0  0  0  0  0  0  0  0  0  0
    2.9363    2.1970    0.7552 H   0  0  0  0  0  0  0  0  0  0  0  0
    1.4524    7.1689    3.0996 H   0  0  0  0  0  0  0  0  0  0  0  0
    5.0712    5.2307    2.7085 H   0  0  0  0  0  0  0  0  0  0  0  0
    6.6240    1.8602    0.5111 H   0  0  0  0  0  0  0  0  0  0  0  0
    7.7189   -0.2509    0.3334 H   0  0  0  0  0  0  0  0  0  0  0  0
    8.0890   -1.8964   -1.4720 H   0  0  0  0  0  0  0  0  0  0  0  0
    9.2214   -4.0701   -1.7012 H   0  0  0  0  0  0  0  0  0  0  0  0
    8.4484   -6.0272   -0.3843 H   0  0  0  0  0  0  0  0  0  0  0  0
    6.5511   -5.7883    1.1995 H   0  0  0  0  0  0  0  0  0  0  0  0
    5.3859   -3.6300    1.4175 H   0  0  0  0  0  0  0  0  0  0  0  0
  1  2  3  0  0  0  0
  2  3  1  0  0  0  0
  3  4  2  0  0  0  0
  3 28  1  0  0  0  0
  4  5  1  0  0  0  0
  4 19  1  0  0  0  0
  5  6  1  0  0  0  0
  5 30  1  0  0  0  0
  6  7  2  0  0  0  0
  6  8  1  0  0  0  0
  8  9  2  0  0  0  0
  8 18  1  0  0  0  0
  9 10  1  0  0  0  0
  9 14  1  0  0  0  0
 10 11  1  0  0  0  0
 10 12  1  0  0  0  0
 10 13  1  0  0  0  0
 14 15  1  0  0  0  0
 14 16  2  0  0  0  0
 16 17  1  0  0  0  0
 16 31  1  0  0  0  0
 17 18  2  0  0  0  0
 18 32  1  0  0  0  0
 19 20  2  0  0  0  0
 19 33  1  0  0  0  0
 20 21  1  0  0  0  0
 20 34  1  0  0  0  0
 21 22  1  0  0  0  0
 21 28  1  0  0  0  0
 22 23  2  0  0  0  0
 22 27  1  0  0  0  0
 23 24  1  0  0  0  0
 23 35  1  0  0  0  0
 24 25  2  0  0  0  0
 24 36  1  0  0  0  0
 25 26  1  0  0  0  0
 25 37  1  0  0  0  0
 26 27  2  0  0  0  0
 26 38  1  0  0  0  0
 27 39  1  0  0  0  0
 28 29  2  0  0  0  0
M  END
$$$$
