
 OpenBabel01122422403D

 49 52  0  0  0  0  0  0  0  0999 V2000
    3.9845    4.8677    6.8432 C   0  0  0  0  0  0  0  0  0  0  0  0
    3.6016    3.8116    5.8561 C   0  0  0  0  0  0  0  0  0  0  0  0
    4.1330    3.7161    4.6253 C   0  0  0  0  0  0  0  0  0  0  0  0
    3.7212    2.6491    3.7126 C   0  0  0  0  0  0  0  0  0  0  0  0
    4.3026    2.5017    2.4502 C   0  0  0  0  0  0  0  0  0  0  0  0
    3.8901    1.4718    1.5886 C   0  0  0  0  0  0  0  0  0  0  0  0
    4.5449    1.3138    0.2404 C   0  0  0  0  0  0  0  0  0  0  0  0
    5.6718    0.4102    0.2875 N   0  0  0  0  0  0  0  0  0  0  0  0
    6.9676    0.8436    0.4802 C   0  0  0  0  0  0  0  0  0  0  0  0
    7.2768    2.0104    0.6882 O   0  0  0  0  0  0  0  0  0  0  0  0
    8.0162   -0.2172    0.4260 C   0  0  0  0  0  0  0  0  0  0  0  0
    7.8549   -1.3435   -0.3850 C   0  0  0  0  0  0  0  0  0  0  0  0
    8.8436   -2.3321   -0.4308 C   0  0  0  0  0  0  0  0  0  0  0  0
   10.0151   -2.2130    0.3200 C   0  0  0  0  0  0  0  0  0  0  0  0
   11.0408   -3.1831    0.3173 N   0  0  0  0  0  0  0  0  0  0  0  0
   11.0499   -4.3998   -0.3506 C   0  0  0  0  0  0  0  0  0  0  0  0
   10.1310   -4.8368   -1.0367 O   0  0  0  0  0  0  0  0  0  0  0  0
   12.2743   -5.1582   -0.1687 C   0  0  0  0  0  0  0  0  0  0  0  0
   12.6420   -6.3955   -0.6659 C   0  0  0  0  0  0  0  0  0  0  0  0
   13.9485   -6.6568   -0.1928 C   0  0  0  0  0  0  0  0  0  0  0  0
   14.2984   -5.5682    0.5707 C   0  0  0  0  0  0  0  0  0  0  0  0
   13.2939   -4.6520    0.5959 O   0  0  0  0  0  0  0  0  0  0  0  0
   10.1899   -1.0665    1.1075 C   0  0  0  0  0  0  0  0  0  0  0  0
    9.1995   -0.0712    1.1576 C   0  0  0  0  0  0  0  0  0  0  0  0
    2.8847    0.5884    2.0128 C   0  0  0  0  0  0  0  0  0  0  0  0
    2.3015    0.7294    3.2752 C   0  0  0  0  0  0  0  0  0  0  0  0
    2.7285    1.7520    4.1204 C   0  0  0  0  0  0  0  0  0  0  0  0
    2.1779    1.8773    5.4006 N   0  0  0  0  0  0  0  0  0  0  0  0
    2.5666    2.8292    6.3048 C   0  0  0  0  0  0  0  0  0  0  0  0
    2.0811    2.8731    7.4314 O   0  0  0  0  0  0  0  0  0  0  0  0
    4.7052    5.5771    6.4229 H   0  0  0  0  0  0  0  0  0  0  0  0
    4.4417    4.4141    7.7289 H   0  0  0  0  0  0  0  0  0  0  0  0
    3.1049    5.4384    7.1588 H   0  0  0  0  0  0  0  0  0  0  0  0
    4.8808    4.4212    4.2777 H   0  0  0  0  0  0  0  0  0  0  0  0
    5.0921    3.1800    2.1283 H   0  0  0  0  0  0  0  0  0  0  0  0
    4.8592    2.2868   -0.1535 H   0  0  0  0  0  0  0  0  0  0  0  0
    3.8268    0.8953   -0.4744 H   0  0  0  0  0  0  0  0  0  0  0  0
    5.4717   -0.5785    0.3318 H   0  0  0  0  0  0  0  0  0  0  0  0
    6.9801   -1.4618   -1.0179 H   0  0  0  0  0  0  0  0  0  0  0  0
    8.6638   -3.1800   -1.0835 H   0  0  0  0  0  0  0  0  0  0  0  0
   11.8704   -2.9914    0.8694 H   0  0  0  0  0  0  0  0  0  0  0  0
   12.0281   -7.0213   -1.3006 H   0  0  0  0  0  0  0  0  0  0  0  0
   14.5579   -7.5281   -0.3857 H   0  0  0  0  0  0  0  0  0  0  0  0
   15.1859   -5.3062    1.1317 H   0  0  0  0  0  0  0  0  0  0  0  0
   11.0955   -0.9278    1.6941 H   0  0  0  0  0  0  0  0  0  0  0  0
    9.3537    0.8154    1.7701 H   0  0  0  0  0  0  0  0  0  0  0  0
    2.5493   -0.2170    1.3630 H   0  0  0  0  0  0  0  0  0  0  0  0
    1.5264    0.0360    3.5883 H   0  0  0  0  0  0  0  0  0  0  0  0
    1.4765    1.2262    5.7238 H   0  0  0  0  0  0  0  0  0  0  0  0
  1  2  1  0  0  0  0
  1 31  1  0  0  0  0
  1 32  1  0  0  0  0
  1 33  1  0  0  0  0
  2  3  2  0  0  0  0
  2 29  1  0  0  0  0
  3  4  1  0  0  0  0
  3 34  1  0  0  0  0
  4  5  2  0  0  0  0
  4 27  1  0  0  0  0
  5  6  1  0  0  0  0
  5 35  1  0  0  0  0
  6  7  1  0  0  0  0
  6 25  2  0  0  0  0
  7  8  1  0  0  0  0
  7 36  1  0  0  0  0
  7 37  1  0  0  0  0
  8  9  1  0  0  0  0
  8 38  1  0  0  0  0
  9 10  2  0  0  0  0
  9 11  1  0  0  0  0
 11 12  2  0  0  0  0
 11 24  1  0  0  0  0
 12 13  1  0  0  0  0
 12 39  1  0  0  0  0
 13 14  2  0  0  0  0
 13 40  1  0  0  0  0
 14 15  1  0  0  0  0
 14 23  1  0  0  0  0
 15 16  1  0  0  0  0
 15 41  1  0  0  0  0
 16 17  2  0  0  0  0
 16 18  1  0  0  0  0
 18 19  2  0  0  0  0
 18 22  1  0  0  0  0
 19 20  1  0  0  0  0
 19 42  1  0  0  0  0
 20 21  2  0  0  0  0
 20 43  1  0  0  0  0
 21 22  1  0  0  0  0
 21 44  1  0  0  0  0
 23 24  2  0  0  0  0
 23 45  1  0  0  0  0
 24 46  1  0  0  0  0
 25 26  1  0  0  0  0
 25 47  1  0  0  0  0
 26 27  2  0  0  0  0
 26 48  1  0  0  0  0
 27 28  1  0  0  0  0
 28 29  1  0  0  0  0
 28 49  1  0  0  0  0
 29 30  2  0  0  0  0
M  END
$$$$
