
 OpenBabel01122422403D

 49 52  0  0  0  0  0  0  0  0999 V2000
    0.6813   -0.0742   -0.3404 O   0  0  0  0  0  0  0  0  0  0  0  0
    0.4441   -0.2710   -1.5293 C   0  0  0  0  0  0  0  0  0  0  0  0
    1.2160   -1.1093   -2.3267 N   0  0  0  0  0  0  0  0  0  0  0  0
    2.3229   -1.7558   -1.7082 C   0  0  0  0  0  0  0  0  0  0  0  0
    3.1692   -2.6629   -2.5507 C   0  0  0  0  0  0  0  0  0  0  0  0
    4.2697   -2.1184   -3.2254 C   0  0  0  0  0  0  0  0  0  0  0  0
    5.1685   -2.9277   -3.9082 C   0  0  0  0  0  0  0  0  0  0  0  0
    4.9658   -4.2998   -3.9446 C   0  0  0  0  0  0  0  0  0  0  0  0
    3.8636   -4.8566   -3.2817 C   0  0  0  0  0  0  0  0  0  0  0  0
    2.8733   -4.0392   -2.6810 C   0  0  0  0  0  0  0  0  0  0  0  0
    1.5284   -4.6741   -2.2585 C   0  0  0  0  0  0  0  0  0  0  0  0
    1.4555   -5.2169   -0.8791 N   0  0  0  0  0  0  0  0  0  0  0  0
    0.5873   -4.8287    0.1409 C   0  0  0  0  0  0  0  0  0  0  0  0
   -0.2357   -3.9450   -0.0576 O   0  0  0  0  0  0  0  0  0  0  0  0
    0.7821   -5.4447    1.5618 C   0  0  0  0  0  0  0  0  0  0  0  0
   -0.1612   -4.9864    2.5495 C   0  0  0  0  0  0  0  0  0  0  0  0
   -0.2194   -5.5745    3.8138 C   0  0  0  0  0  0  0  0  0  0  0  0
    0.6131   -6.5948    4.0876 C   0  0  0  0  0  0  0  0  0  0  0  0
    0.5701   -7.2400    5.2613 F   0  0  0  0  0  0  0  0  0  0  0  0
    1.2574   -7.1819    3.0788 C   0  0  0  0  0  0  0  0  0  0  0  0
    1.0482   -8.4323    3.2310 N   0  0  0  0  0  0  0  0  0  0  0  0
    2.1307   -8.9888    3.5826 C   0  0  0  0  0  0  0  0  0  0  0  0
    3.0665   -9.0419    2.5457 C   0  0  0  0  0  0  0  0  0  0  0  0
    2.7486   -7.8250    1.6959 C   0  0  0  0  0  0  0  0  0  0  0  0
    1.6624   -6.7165    1.9012 C   0  0  0  0  0  0  0  0  0  0  0  0
   -0.7075    0.3110   -2.2003 C   0  0  0  0  0  0  0  0  0  0  0  0
   -1.0871    0.1676   -3.5274 C   0  0  0  0  0  0  0  0  0  0  0  0
   -2.1621    0.9942   -3.7649 N   0  0  0  0  0  0  0  0  0  0  0  0
   -2.4720    1.6690   -2.6146 C   0  0  0  0  0  0  0  0  0  0  0  0
   -1.6117    1.2458   -1.6309 C   0  0  0  0  0  0  0  0  0  0  0  0
    1.2611   -0.9752   -3.3248 H   0  0  0  0  0  0  0  0  0  0  0  0
    1.9575   -2.3239   -0.8428 H   0  0  0  0  0  0  0  0  0  0  0  0
    2.9319   -0.8909   -1.4497 H   0  0  0  0  0  0  0  0  0  0  0  0
    4.4197   -1.0428   -3.2122 H   0  0  0  0  0  0  0  0  0  0  0  0
    6.0440   -2.4837   -4.3719 H   0  0  0  0  0  0  0  0  0  0  0  0
    5.6539   -4.9313   -4.5048 H   0  0  0  0  0  0  0  0  0  0  0  0
    3.8099   -5.9438   -3.2293 H   0  0  0  0  0  0  0  0  0  0  0  0
    1.2784   -5.4649   -2.9713 H   0  0  0  0  0  0  0  0  0  0  0  0
    0.7642   -3.8892   -2.3110 H   0  0  0  0  0  0  0  0  0  0  0  0
    2.2750   -5.6956   -0.5648 H   0  0  0  0  0  0  0  0  0  0  0  0
   -0.9097   -4.2134    2.3875 H   0  0  0  0  0  0  0  0  0  0  0  0
   -0.9908   -5.4146    4.5555 H   0  0  0  0  0  0  0  0  0  0  0  0
    1.9456   -9.4095    4.6033 H   0  0  0  0  0  0  0  0  0  0  0  0
    3.2639   -9.9269    3.1921 H   0  0  0  0  0  0  0  0  0  0  0  0
    3.3361   -7.5307    0.8051 H   0  0  0  0  0  0  0  0  0  0  0  0
   -0.6785   -0.4350   -4.3302 H   0  0  0  0  0  0  0  0  0  0  0  0
   -2.6400    1.1096   -4.6521 H   0  0  0  0  0  0  0  0  0  0  0  0
   -3.2635    2.4050   -2.5853 H   0  0  0  0  0  0  0  0  0  0  0  0
   -1.5780    1.6196   -0.6183 H   0  0  0  0  0  0  0  0  0  0  0  0
  1  2  2  0  0  0  0
  2  3  1  0  0  0  0
  2 26  1  0  0  0  0
  3  4  1  0  0  0  0
  3 31  1  0  0  0  0
  4  5  1  0  0  0  0
  4 32  1  0  0  0  0
  4 33  1  0  0  0  0
  5  6  2  0  0  0  0
  5 10  1  0  0  0  0
  6  7  1  0  0  0  0
  6 34  1  0  0  0  0
  7  8  2  0  0  0  0
  7 35  1  0  0  0  0
  8  9  1  0  0  0  0
  8 36  1  0  0  0  0
  9 10  2  0  0  0  0
  9 37  1  0  0  0  0
 10 11  1  0  0  0  0
 11 12  1  0  0  0  0
 11 38  1  0  0  0  0
 11 39  1  0  0  0  0
 12 13  1  0  0  0  0
 12 40  1  0  0  0  0
 13 14  2  0  0  0  0
 13 15  1  0  0  0  0
 15 16  2  0  0  0  0
 15 25  1  0  0  0  0
 16 17  1  0  0  0  0
 16 41  1  0  0  0  0
 17 18  2  0  0  0  0
 17 42  1  0  0  0  0
 18 19  1  0  0  0  0
 18 20  1  0  0  0  0
 20 21  2  0  0  0  0
 20 25  1  0  0  0  0
 21 22  1  0  0  0  0
 22 23  2  0  0  0  0
 22 43  1  0  0  0  0
 23 24  1  0  0  0  0
 23 44  1  0  0  0  0
 24 25  2  0  0  0  0
 24 45  1  0  0  0  0
 26 27  2  0  0  0  0
 26 30  1  0  0  0  0
 27 28  1  0  0  0  0
 27 46  1  0  0  0  0
 28 29  1  0  0  0  0
 28 47  1  0  0  0  0
 29 30  2  0  0  0  0
 29 48  1  0  0  0  0
 30 49  1  0  0  0  0
M  END
$$$$
