
 OpenBabel01122422403D

 41 44  0  0  0  0  0  0  0  0999 V2000
    0.9211   -0.7133   -0.6111 O   0  0  0  0  0  0  0  0  0  0  0  0
    2.1055   -0.4945   -0.3673 C   0  0  0  0  0  0  0  0  0  0  0  0
    2.7917   -0.9027    0.7662 N   0  0  0  0  0  0  0  0  0  0  0  0
    2.2270   -1.6403    1.8393 C   0  0  0  0  0  0  0  0  0  0  0  0
    1.1188   -2.4759    1.6053 C   0  0  0  0  0  0  0  0  0  0  0  0
    0.5664   -3.2676    2.6112 C   0  0  0  0  0  0  0  0  0  0  0  0
    1.1251   -3.2577    3.8816 C   0  0  0  0  0  0  0  0  0  0  0  0
    2.2145   -2.4307    4.1440 C   0  0  0  0  0  0  0  0  0  0  0  0
    2.7566   -1.6005    3.1459 C   0  0  0  0  0  0  0  0  0  0  0  0
    3.8206   -0.8488    3.6041 O   0  0  0  0  0  0  0  0  0  0  0  0
    4.0472    0.4277    3.1545 C   0  0  0  0  0  0  0  0  0  0  0  0
    3.0639    1.3115    2.7084 C   0  0  0  0  0  0  0  0  0  0  0  0
    3.4504    2.4981    2.0911 C   0  0  0  0  0  0  0  0  0  0  0  0
    2.5174    3.2846    1.5393 F   0  0  0  0  0  0  0  0  0  0  0  0
    4.7874    2.8591    1.9945 C   0  0  0  0  0  0  0  0  0  0  0  0
    5.7445    2.0271    2.5554 C   0  0  0  0  0  0  0  0  0  0  0  0
    7.0364    2.3758    2.5027 F   0  0  0  0  0  0  0  0  0  0  0  0
    5.3878    0.8176    3.1390 C   0  0  0  0  0  0  0  0  0  0  0  0
    2.8860    0.3320   -1.3387 C   0  0  0  0  0  0  0  0  0  0  0  0
    2.2285    0.8077   -2.4660 C   0  0  0  0  0  0  0  0  0  0  0  0
    2.9464    1.5425   -3.4066 C   0  0  0  0  0  0  0  0  0  0  0  0
    2.2815    2.0376   -4.6032 C   0  0  0  0  0  0  0  0  0  0  0  0
    0.9706    1.8769   -4.8612 N   0  0  0  0  0  0  0  0  0  0  0  0
    0.8818    2.4975   -6.0456 N   0  0  0  0  0  0  0  0  0  0  0  0
    2.0196    3.0120   -6.5223 N   0  0  0  0  0  0  0  0  0  0  0  0
    2.9306    2.7237   -5.6025 N   0  0  0  0  0  0  0  0  0  0  0  0
    4.3025    1.7748   -3.1700 C   0  0  0  0  0  0  0  0  0  0  0  0
    4.8715    1.2757   -2.0026 C   0  0  0  0  0  0  0  0  0  0  0  0
    4.1991    0.5584   -1.0724 N   0  0  0  0  0  0  0  0  0  0  0  0
    3.7173   -0.5010    0.8826 H   0  0  0  0  0  0  0  0  0  0  0  0
    0.6736   -2.5548    0.6169 H   0  0  0  0  0  0  0  0  0  0  0  0
   -0.2857   -3.9023    2.3837 H   0  0  0  0  0  0  0  0  0  0  0  0
    0.7126   -3.8932    4.6581 H   0  0  0  0  0  0  0  0  0  0  0  0
    2.6446   -2.4290    5.1436 H   0  0  0  0  0  0  0  0  0  0  0  0
    2.0077    1.0650    2.7571 H   0  0  0  0  0  0  0  0  0  0  0  0
    5.0776    3.7717    1.4889 H   0  0  0  0  0  0  0  0  0  0  0  0
    6.1581    0.1695    3.5465 H   0  0  0  0  0  0  0  0  0  0  0  0
    1.1712    0.5976   -2.6095 H   0  0  0  0  0  0  0  0  0  0  0  0
    0.0028    2.5755   -6.5536 H   0  0  0  0  0  0  0  0  0  0  0  0
    4.9120    2.3322   -3.8758 H   0  0  0  0  0  0  0  0  0  0  0  0
    5.9237    1.4472   -1.7862 H   0  0  0  0  0  0  0  0  0  0  0  0
  1  2  2  0  0  0  0
  2  3  1  0  0  0  0
  2 19  1  0  0  0  0
  3  4  1  0  0  0  0
  3 30  1  0  0  0  0
  4  5  2  0  0  0  0
  4  9  1  0  0  0  0
  5  6  1  0  0  0  0
  5 31  1  0  0  0  0
  6  7  2  0  0  0  0
  6 32  1  0  0  0  0
  7  8  1  0  0  0  0
  7 33  1  0  0  0  0
  8  9  2  0  0  0  0
  8 34  1  0  0  0  0
  9 10  1  0  0  0  0
 10 11  1  0  0  0  0
 11 12  2  0  0  0  0
 11 18  1  0  0  0  0
 12 13  1  0  0  0  0
 12 35  1  0  0  0  0
 13 14  1  0  0  0  0
 13 15  2  0  0  0  0
 15 16  1  0  0  0  0
 15 36  1  0  0  0  0
 16 17  1  0  0  0  0
 16 18  2  0  0  0  0
 18 37  1  0  0  0  0
 19 20  2  0  0  0  0
 19 29  1  0  0  0  0
 20 21  1  0  0  0  0
 20 38  1  0  0  0  0
 21 22  1  0  0  0  0
 21 27  2  0  0  0  0
 22 23  2  0  0  0  0
 22 26  1  0  0  0  0
 23 24  1  0  0  0  0
 24 25  1  0  0  0  0
 24 39  1  0  0  0  0
 25 26  2  0  0  0  0
 27 28  1  0  0  0  0
 27 40  1  0  0  0  0
 28 29  2  0  0  0  0
 28 41  1  0  0  0  0
M  END
$$$$
