
 OpenBabel01122422403D

 39 42  0  0  0  0  0  0  0  0999 V2000
    2.0475   -0.0062    1.1142 O   0  0  0  0  0  0  0  0  0  0  0  0
    2.1909    0.1114   -0.0971 C   0  0  0  0  0  0  0  0  0  0  0  0
    1.6382    1.3009   -0.8042 C   0  0  0  0  0  0  0  0  0  0  0  0
    2.2872    1.8464   -1.9212 C   0  0  0  0  0  0  0  0  0  0  0  0
    1.6871    2.8723   -2.6485 C   0  0  0  0  0  0  0  0  0  0  0  0
    0.4620    3.3891   -2.2330 C   0  0  0  0  0  0  0  0  0  0  0  0
   -0.1533    2.8943   -1.0816 C   0  0  0  0  0  0  0  0  0  0  0  0
    0.4327    1.8522   -0.3625 C   0  0  0  0  0  0  0  0  0  0  0  0
    2.9167   -0.9363   -0.8660 C   0  0  0  0  0  0  0  0  0  0  0  0
    2.5760   -1.2252   -2.1930 C   0  0  0  0  0  0  0  0  0  0  0  0
    3.3572   -2.1060   -2.9392 C   0  0  0  0  0  0  0  0  0  0  0  0
    4.4606   -2.7496   -2.3626 C   0  0  0  0  0  0  0  0  0  0  0  0
    5.2794   -3.6202   -3.1938 C   0  0  0  0  0  0  0  0  0  0  0  0
    5.1810   -3.8868   -4.4748 N   0  0  0  0  0  0  0  0  0  0  0  0
    6.2281   -4.7660   -4.6893 C   0  0  0  0  0  0  0  0  0  0  0  0
    6.4752   -5.3732   -5.9981 C   0  0  0  0  0  0  0  0  0  0  0  0
    5.6582   -4.9680   -7.0151 N   0  0  0  0  0  0  0  0  0  0  0  0
    5.8385   -5.5682   -8.1998 C   0  0  0  0  0  0  0  0  0  0  0  0
    5.0108   -5.1274   -9.1765 O   0  0  0  0  0  0  0  0  0  0  0  0
    6.7700   -6.5514   -8.4669 C   0  0  0  0  0  0  0  0  0  0  0  0
    7.6070   -6.9390   -7.4289 C   0  0  0  0  0  0  0  0  0  0  0  0
    7.4639   -6.3396   -6.1818 C   0  0  0  0  0  0  0  0  0  0  0  0
    8.2819   -6.7280   -5.1936 F   0  0  0  0  0  0  0  0  0  0  0  0
    6.9484   -5.0140   -3.5811 N   0  0  0  0  0  0  0  0  0  0  0  0
    6.3230   -4.2592   -2.5948 O   0  0  0  0  0  0  0  0  0  0  0  0
    4.7432   -2.5180   -1.0064 C   0  0  0  0  0  0  0  0  0  0  0  0
    3.9756   -1.6158   -0.2602 C   0  0  0  0  0  0  0  0  0  0  0  0
    3.2526    1.4687   -2.2511 H   0  0  0  0  0  0  0  0  0  0  0  0
    2.1711    3.2611   -3.5401 H   0  0  0  0  0  0  0  0  0  0  0  0
   -0.0128    4.1823   -2.8052 H   0  0  0  0  0  0  0  0  0  0  0  0
   -1.1002    3.3136   -0.7494 H   0  0  0  0  0  0  0  0  0  0  0  0
   -0.0565    1.4585    0.5254 H   0  0  0  0  0  0  0  0  0  0  0  0
    1.7218   -0.7529   -2.6716 H   0  0  0  0  0  0  0  0  0  0  0  0
    3.1071   -2.2772   -3.9863 H   0  0  0  0  0  0  0  0  0  0  0  0
    4.5113   -4.4451   -8.6893 H   0  0  0  0  0  0  0  0  0  0  0  0
    6.8392   -6.9970   -9.4522 H   0  0  0  0  0  0  0  0  0  0  0  0
    8.3644   -7.7037   -7.5772 H   0  0  0  0  0  0  0  0  0  0  0  0
    5.5765   -3.0199   -0.5174 H   0  0  0  0  0  0  0  0  0  0  0  0
    4.2225   -1.4278    0.7837 H   0  0  0  0  0  0  0  0  0  0  0  0
  1  2  2  0  0  0  0
  2  3  1  0  0  0  0
  2  9  1  0  0  0  0
  3  4  2  0  0  0  0
  3  8  1  0  0  0  0
  4  5  1  0  0  0  0
  4 28  1  0  0  0  0
  5  6  2  0  0  0  0
  5 29  1  0  0  0  0
  6  7  1  0  0  0  0
  6 30  1  0  0  0  0
  7  8  2  0  0  0  0
  7 31  1  0  0  0  0
  8 32  1  0  0  0  0
  9 10  2  0  0  0  0
  9 27  1  0  0  0  0
 10 11  1  0  0  0  0
 10 33  1  0  0  0  0
 11 12  2  0  0  0  0
 11 34  1  0  0  0  0
 12 13  1  0  0  0  0
 12 26  1  0  0  0  0
 13 14  2  0  0  0  0
 13 25  1  0  0  0  0
 14 15  1  0  0  0  0
 15 16  1  0  0  0  0
 15 24  2  0  0  0  0
 16 17  2  0  0  0  0
 16 22  1  0  0  0  0
 17 18  1  0  0  0  0
 18 19  1  0  0  0  0
 18 20  2  0  0  0  0
 19 35  1  0  0  0  0
 20 21  1  0  0  0  0
 20 36  1  0  0  0  0
 21 22  2  0  0  0  0
 21 37  1  0  0  0  0
 22 23  1  0  0  0  0
 24 25  1  0  0  0  0
 26 27  2  0  0  0  0
 26 38  1  0  0  0  0
 27 39  1  0  0  0  0
M  END
$$$$
