
 OpenBabel01122422403D

 49 52  0  0  0  0  0  0  0  0999 V2000
    3.8077    3.4133    4.6461 C   0  0  0  0  0  0  0  0  0  0  0  0
    4.5097    3.0032    3.4752 O   0  0  0  0  0  0  0  0  0  0  0  0
    3.9716    1.9429    2.8331 C   0  0  0  0  0  0  0  0  0  0  0  0
    3.0035    1.2867    3.1859 O   0  0  0  0  0  0  0  0  0  0  0  0
    4.8116    1.5928    1.6758 C   0  0  0  0  0  0  0  0  0  0  0  0
    5.0506    0.2427    1.4092 C   0  0  0  0  0  0  0  0  0  0  0  0
    5.8623   -0.1257    0.3424 C   0  0  0  0  0  0  0  0  0  0  0  0
    6.1566   -1.4684    0.0243 N   0  0  0  0  0  0  0  0  0  0  0  0
    6.0282   -2.5782    0.8658 C   0  0  0  0  0  0  0  0  0  0  0  0
    5.8194   -2.4885    2.0713 O   0  0  0  0  0  0  0  0  0  0  0  0
    6.0744   -3.8647    0.1976 C   0  0  0  0  0  0  0  0  0  0  0  0
    6.5440   -4.1040   -1.0987 C   0  0  0  0  0  0  0  0  0  0  0  0
    7.9092   -3.6773   -1.4903 C   0  0  0  0  0  0  0  0  0  0  0  0
    8.8180   -3.4856   -0.4195 C   0  0  0  0  0  0  0  0  0  0  0  0
    9.7154   -2.4298   -0.4320 C   0  0  0  0  0  0  0  0  0  0  0  0
    9.8240   -1.6590   -1.5793 C   0  0  0  0  0  0  0  0  0  0  0  0
    9.1142   -2.0187   -2.7309 C   0  0  0  0  0  0  0  0  0  0  0  0
    8.1545   -3.0379   -2.6962 C   0  0  0  0  0  0  0  0  0  0  0  0
    5.8393   -5.2391   -1.4594 N   0  0  0  0  0  0  0  0  0  0  0  0
    4.8298   -5.2607   -2.5042 C   0  0  0  0  0  0  0  0  0  0  0  0
    5.7366   -6.0270   -0.3226 C   0  0  0  0  0  0  0  0  0  0  0  0
    5.3349   -7.3494   -0.1194 C   0  0  0  0  0  0  0  0  0  0  0  0
    5.5661   -7.8875    1.1512 C   0  0  0  0  0  0  0  0  0  0  0  0
    6.1374   -7.1244    2.1694 C   0  0  0  0  0  0  0  0  0  0  0  0
    6.3423   -5.7548    1.9988 C   0  0  0  0  0  0  0  0  0  0  0  0
    6.0857   -5.1868    0.7379 C   0  0  0  0  0  0  0  0  0  0  0  0
    6.3653    0.8997   -0.4627 C   0  0  0  0  0  0  0  0  0  0  0  0
    6.1454    2.2201   -0.2431 N   0  0  0  0  0  0  0  0  0  0  0  0
    5.3785    2.5271    0.8239 C   0  0  0  0  0  0  0  0  0  0  0  0
    5.2014    3.8633    0.9610 O   0  0  0  0  0  0  0  0  0  0  0  0
    4.2820    4.3267    5.0146 H   0  0  0  0  0  0  0  0  0  0  0  0
    3.8839    2.6444    5.4208 H   0  0  0  0  0  0  0  0  0  0  0  0
    2.7599    3.6302    4.4173 H   0  0  0  0  0  0  0  0  0  0  0  0
    4.5822   -0.5042    2.0435 H   0  0  0  0  0  0  0  0  0  0  0  0
    6.5900   -1.6445   -0.8730 H   0  0  0  0  0  0  0  0  0  0  0  0
    8.7078   -4.0488    0.5098 H   0  0  0  0  0  0  0  0  0  0  0  0
   10.2601   -2.1760    0.4744 H   0  0  0  0  0  0  0  0  0  0  0  0
   10.4603   -0.7782   -1.5716 H   0  0  0  0  0  0  0  0  0  0  0  0
    9.2620   -1.4475   -3.6439 H   0  0  0  0  0  0  0  0  0  0  0  0
    7.5490   -3.2440   -3.5726 H   0  0  0  0  0  0  0  0  0  0  0  0
    4.9237   -4.3621   -3.1199 H   0  0  0  0  0  0  0  0  0  0  0  0
    3.8440   -5.2610   -2.0250 H   0  0  0  0  0  0  0  0  0  0  0  0
    4.9602   -6.1608   -3.1062 H   0  0  0  0  0  0  0  0  0  0  0  0
    4.9165   -7.9543   -0.9174 H   0  0  0  0  0  0  0  0  0  0  0  0
    5.3225   -8.9303    1.3416 H   0  0  0  0  0  0  0  0  0  0  0  0
    6.4040   -7.5890    3.1145 H   0  0  0  0  0  0  0  0  0  0  0  0
    6.7613   -5.1475    2.7955 H   0  0  0  0  0  0  0  0  0  0  0  0
    6.9937    0.6894   -1.3228 H   0  0  0  0  0  0  0  0  0  0  0  0
    5.7804    4.1954    0.2531 H   0  0  0  0  0  0  0  0  0  0  0  0
  1  2  1  0  0  0  0
  1 31  1  0  0  0  0
  1 32  1  0  0  0  0
  1 33  1  0  0  0  0
  2  3  1  0  0  0  0
  3  4  2  0  0  0  0
  3  5  1  0  0  0  0
  5  6  2  0  0  0  0
  5 29  1  0  0  0  0
  6  7  1  0  0  0  0
  6 34  1  0  0  0  0
  7  8  1  0  0  0  0
  7 27  2  0  0  0  0
  8  9  1  0  0  0  0
  8 35  1  0  0  0  0
  9 10  2  0  0  0  0
  9 11  1  0  0  0  0
 11 12  2  0  0  0  0
 11 26  1  0  0  0  0
 12 13  1  0  0  0  0
 12 19  1  0  0  0  0
 13 14  2  0  0  0  0
 13 18  1  0  0  0  0
 14 15  1  0  0  0  0
 14 36  1  0  0  0  0
 15 16  2  0  0  0  0
 15 37  1  0  0  0  0
 16 17  1  0  0  0  0
 16 38  1  0  0  0  0
 17 18  2  0  0  0  0
 17 39  1  0  0  0  0
 18 40  1  0  0  0  0
 19 20  1  0  0  0  0
 19 21  1  0  0  0  0
 20 41  1  0  0  0  0
 20 42  1  0  0  0  0
 20 43  1  0  0  0  0
 21 22  2  0  0  0  0
 21 26  1  0  0  0  0
 22 23  1  0  0  0  0
 22 44  1  0  0  0  0
 23 24  2  0  0  0  0
 23 45  1  0  0  0  0
 24 25  1  0  0  0  0
 24 46  1  0  0  0  0
 25 26  2  0  0  0  0
 25 47  1  0  0  0  0
 27 28  1  0  0  0  0
 27 48  1  0  0  0  0
 28 29  2  0  0  0  0
 29 30  1  0  0  0  0
 30 49  1  0  0  0  0
M  END
$$$$
