
 OpenBabel01122422403D

 41 44  0  0  0  0  0  0  0  0999 V2000
    2.9160    0.6232    0.9992 C   0  0  0  0  0  0  0  0  0  0  0  0
    2.2325   -0.1396    0.0032 O   0  0  0  0  0  0  0  0  0  0  0  0
    3.0047   -1.0853   -0.6328 C   0  0  0  0  0  0  0  0  0  0  0  0
    4.0841   -1.7093   -0.0076 C   0  0  0  0  0  0  0  0  0  0  0  0
    4.8218   -2.6172   -0.7351 C   0  0  0  0  0  0  0  0  0  0  0  0
    4.5516   -2.9478   -2.0091 N   0  0  0  0  0  0  0  0  0  0  0  0
    3.4897   -2.3790   -2.5981 C   0  0  0  0  0  0  0  0  0  0  0  0
    3.2152   -2.7464   -3.9015 C   0  0  0  0  0  0  0  0  0  0  0  0
    2.1239   -2.2305   -4.6030 C   0  0  0  0  0  0  0  0  0  0  0  0
    1.2681   -1.3179   -3.9990 C   0  0  0  0  0  0  0  0  0  0  0  0
    0.1264   -0.7908   -4.6405 N   0  0  0  0  0  0  0  0  0  0  0  0
   -0.3305   -1.0764   -5.9147 C   0  0  0  0  0  0  0  0  0  0  0  0
    0.2219   -1.8039   -6.7361 O   0  0  0  0  0  0  0  0  0  0  0  0
   -1.6331   -0.4313   -6.2686 C   0  0  0  0  0  0  0  0  0  0  0  0
   -2.1501   -0.6338   -7.4943 C   0  0  0  0  0  0  0  0  0  0  0  0
   -3.3492   -0.1380   -7.9472 N   0  0  0  0  0  0  0  0  0  0  0  0
   -4.2171    0.5263   -7.0718 C   0  0  0  0  0  0  0  0  0  0  0  0
   -3.7867    0.8371   -5.7660 C   0  0  0  0  0  0  0  0  0  0  0  0
   -4.6125    1.5256   -4.8747 C   0  0  0  0  0  0  0  0  0  0  0  0
   -5.8763    1.9109   -5.2971 C   0  0  0  0  0  0  0  0  0  0  0  0
   -6.6814    2.5608   -4.4466 F   0  0  0  0  0  0  0  0  0  0  0  0
   -6.3071    1.6273   -6.5901 C   0  0  0  0  0  0  0  0  0  0  0  0
   -7.5275    2.0097   -6.9890 F   0  0  0  0  0  0  0  0  0  0  0  0
   -5.4829    0.9463   -7.4847 C   0  0  0  0  0  0  0  0  0  0  0  0
   -2.4364    0.3998   -5.3334 C   0  0  0  0  0  0  0  0  0  0  0  0
   -2.0094    0.7096   -4.2239 O   0  0  0  0  0  0  0  0  0  0  0  0
    1.5423   -0.9170   -2.6810 C   0  0  0  0  0  0  0  0  0  0  0  0
    2.6543   -1.4421   -1.9610 C   0  0  0  0  0  0  0  0  0  0  0  0
    2.2911    1.4813    1.2622 H   0  0  0  0  0  0  0  0  0  0  0  0
    3.8707    1.0082    0.6214 H   0  0  0  0  0  0  0  0  0  0  0  0
    3.0678    0.0349    1.9107 H   0  0  0  0  0  0  0  0  0  0  0  0
    4.3610   -1.5194    1.0208 H   0  0  0  0  0  0  0  0  0  0  0  0
    5.6799   -3.1210   -0.2999 H   0  0  0  0  0  0  0  0  0  0  0  0
    3.8661   -3.4645   -4.3939 H   0  0  0  0  0  0  0  0  0  0  0  0
    1.9785   -2.5803   -5.6189 H   0  0  0  0  0  0  0  0  0  0  0  0
   -0.4431   -0.1499   -4.0844 H   0  0  0  0  0  0  0  0  0  0  0  0
   -1.6331   -1.2402   -8.2371 H   0  0  0  0  0  0  0  0  0  0  0  0
   -3.7151   -0.5069   -8.8203 H   0  0  0  0  0  0  0  0  0  0  0  0
   -4.2855    1.7555   -3.8648 H   0  0  0  0  0  0  0  0  0  0  0  0
   -5.8458    0.7494   -8.4884 H   0  0  0  0  0  0  0  0  0  0  0  0
    0.8895   -0.2000   -2.1862 H   0  0  0  0  0  0  0  0  0  0  0  0
  1  2  1  0  0  0  0
  1 29  1  0  0  0  0
  1 30  1  0  0  0  0
  1 31  1  0  0  0  0
  2  3  1  0  0  0  0
  3  4  2  0  0  0  0
  3 28  1  0  0  0  0
  4  5  1  0  0  0  0
  4 32  1  0  0  0  0
  5  6  2  0  0  0  0
  5 33  1  0  0  0  0
  6  7  1  0  0  0  0
  7  8  2  0  0  0  0
  7 28  1  0  0  0  0
  8  9  1  0  0  0  0
  8 34  1  0  0  0  0
  9 10  2  0  0  0  0
  9 35  1  0  0  0  0
 10 11  1  0  0  0  0
 10 27  1  0  0  0  0
 11 12  1  0  0  0  0
 11 36  1  0  0  0  0
 12 13  2  0  0  0  0
 12 14  1  0  0  0  0
 14 15  2  0  0  0  0
 14 25  1  0  0  0  0
 15 16  1  0  0  0  0
 15 37  1  0  0  0  0
 16 17  1  0  0  0  0
 16 38  1  0  0  0  0
 17 18  2  0  0  0  0
 17 24  1  0  0  0  0
 18 19  1  0  0  0  0
 18 25  1  0  0  0  0
 19 20  2  0  0  0  0
 19 39  1  0  0  0  0
 20 21  1  0  0  0  0
 20 22  1  0  0  0  0
 22 23  1  0  0  0  0
 22 24  2  0  0  0  0
 24 40  1  0  0  0  0
 25 26  2  0  0  0  0
 27 28  2  0  0  0  0
 27 41  1  0  0  0  0
M  END
$$$$
