
 OpenBabel01122422403D

 49 52  0  0  1  0  0  0  0  0999 V2000
    1.3840   -1.1963   -0.5080 O   0  0  0  0  0  0  0  0  0  0  0  0
    2.4567   -0.6422   -0.2936 C   0  0  0  0  0  0  0  0  0  0  0  0
    2.9983    0.2730   -1.1687 N   0  0  0  0  0  0  0  0  0  0  0  0
    2.3122    0.6281   -2.4105 C   0  0  1  0  0  0  0  0  0  0  0  0
    1.2784    1.7622   -2.1894 C   0  0  0  0  0  0  0  0  0  0  0  0
    1.8636    3.0048   -1.6981 N   0  0  0  0  0  0  0  0  0  0  0  0
    1.7366    4.1831   -2.4062 C   0  0  0  0  0  0  0  0  0  0  0  0
    1.0682    4.2762   -3.4269 O   0  0  0  0  0  0  0  0  0  0  0  0
    2.4847    5.3558   -1.8692 C   0  0  0  0  0  0  0  0  0  0  0  0
    2.5934    5.4931   -0.4825 C   0  0  0  0  0  0  0  0  0  0  0  0
    3.3088    6.5622    0.0048 C   0  0  0  0  0  0  0  0  0  0  0  0
    3.9110    7.4740   -0.7801 N   0  0  0  0  0  0  0  0  0  0  0  0
    3.8026    7.3538   -2.1132 C   0  0  0  0  0  0  0  0  0  0  0  0
    4.4509    8.2983   -2.9012 C   0  0  0  0  0  0  0  0  0  0  0  0
    4.4171    8.2483   -4.2955 C   0  0  0  0  0  0  0  0  0  0  0  0
    3.7009    7.2418   -4.9128 C   0  0  0  0  0  0  0  0  0  0  0  0
    3.6526    7.1845   -6.2493 F   0  0  0  0  0  0  0  0  0  0  0  0
    3.0394    6.2838   -4.1571 C   0  0  0  0  0  0  0  0  0  0  0  0
    3.0836    6.3100   -2.7368 C   0  0  0  0  0  0  0  0  0  0  0  0
    3.3230    0.9143   -3.5111 C   0  0  0  0  0  0  0  0  0  0  0  0
    3.2935    0.1626   -4.6976 C   0  0  0  0  0  0  0  0  0  0  0  0
    4.2568    0.3571   -5.6904 C   0  0  0  0  0  0  0  0  0  0  0  0
    5.2537    1.3143   -5.5191 C   0  0  0  0  0  0  0  0  0  0  0  0
    5.2777    2.0915   -4.3650 C   0  0  0  0  0  0  0  0  0  0  0  0
    4.3217    1.8918   -3.3687 C   0  0  0  0  0  0  0  0  0  0  0  0
    3.2399   -0.9016    0.9158 C   0  0  0  0  0  0  0  0  0  0  0  0
    2.8772   -1.8396    1.8734 C   0  0  0  0  0  0  0  0  0  0  0  0
    3.8004   -1.8344    2.8825 N   0  0  0  0  0  0  0  0  0  0  0  0
    4.7566   -0.8981    2.6045 C   0  0  0  0  0  0  0  0  0  0  0  0
    4.4498   -0.3147    1.3967 C   0  0  0  0  0  0  0  0  0  0  0  0
    3.9152    0.6516   -0.9921 H   0  0  0  0  0  0  0  0  0  0  0  0
    1.7286   -0.2507   -2.7154 H   0  0  0  0  0  0  0  0  0  0  0  0
    0.5488    1.4609   -1.4298 H   0  0  0  0  0  0  0  0  0  0  0  0
    0.7324    1.9473   -3.1201 H   0  0  0  0  0  0  0  0  0  0  0  0
    2.4349    2.9463   -0.8684 H   0  0  0  0  0  0  0  0  0  0  0  0
    2.1224    4.8050    0.2096 H   0  0  0  0  0  0  0  0  0  0  0  0
    3.4257    6.7193    1.0742 H   0  0  0  0  0  0  0  0  0  0  0  0
    5.0065    9.0959   -2.4122 H   0  0  0  0  0  0  0  0  0  0  0  0
    4.9408    8.9853   -4.8946 H   0  0  0  0  0  0  0  0  0  0  0  0
    2.4910    5.5192   -4.7004 H   0  0  0  0  0  0  0  0  0  0  0  0
    2.5243   -0.5912   -4.8572 H   0  0  0  0  0  0  0  0  0  0  0  0
    4.2321   -0.2433   -6.5964 H   0  0  0  0  0  0  0  0  0  0  0  0
    6.0100    1.4567   -6.2862 H   0  0  0  0  0  0  0  0  0  0  0  0
    6.0445    2.8509   -4.2366 H   0  0  0  0  0  0  0  0  0  0  0  0
    4.3717    2.5094   -2.4775 H   0  0  0  0  0  0  0  0  0  0  0  0
    2.0241   -2.5006    1.9124 H   0  0  0  0  0  0  0  0  0  0  0  0
    3.7728   -2.4261    3.7038 H   0  0  0  0  0  0  0  0  0  0  0  0
    5.5804   -0.7333    3.2927 H   0  0  0  0  0  0  0  0  0  0  0  0
    5.0388    0.4608    0.9260 H   0  0  0  0  0  0  0  0  0  0  0  0
  1  2  2  0  0  0  0
  2  3  1  0  0  0  0
  2 26  1  0  0  0  0
  3  4  1  0  0  0  0
  3 31  1  0  0  0  0
  4  5  1  0  0  0  0
  4 20  1  0  0  0  0
  4 32  1  6  0  0  0
  5  6  1  0  0  0  0
  5 33  1  0  0  0  0
  5 34  1  0  0  0  0
  6  7  1  0  0  0  0
  6 35  1  0  0  0  0
  7  8  2  0  0  0  0
  7  9  1  0  0  0  0
  9 10  2  0  0  0  0
  9 19  1  0  0  0  0
 10 11  1  0  0  0  0
 10 36  1  0  0  0  0
 11 12  2  0  0  0  0
 11 37  1  0  0  0  0
 12 13  1  0  0  0  0
 13 14  2  0  0  0  0
 13 19  1  0  0  0  0
 14 15  1  0  0  0  0
 14 38  1  0  0  0  0
 15 16  2  0  0  0  0
 15 39  1  0  0  0  0
 16 17  1  0  0  0  0
 16 18  1  0  0  0  0
 18 19  2  0  0  0  0
 18 40  1  0  0  0  0
 20 21  2  0  0  0  0
 20 25  1  0  0  0  0
 21 22  1  0  0  0  0
 21 41  1  0  0  0  0
 22 23  2  0  0  0  0
 22 42  1  0  0  0  0
 23 24  1  0  0  0  0
 23 43  1  0  0  0  0
 24 25  2  0  0  0  0
 24 44  1  0  0  0  0
 25 45  1  0  0  0  0
 26 27  2  0  0  0  0
 26 30  1  0  0  0  0
 27 28  1  0  0  0  0
 27 46  1  0  0  0  0
 28 29  1  0  0  0  0
 28 47  1  0  0  0  0
 29 30  2  0  0  0  0
 29 48  1  0  0  0  0
 30 49  1  0  0  0  0
M  END
$$$$
