
 OpenBabel01122422403D

 45 48  0  0  0  0  0  0  0  0999 V2000
    2.9317    1.4373    2.1349 O   0  0  0  0  0  0  0  0  0  0  0  0
    3.2810    0.7668    1.1683 C   0  0  0  0  0  0  0  0  0  0  0  0
    3.0291    1.1322   -0.1343 N   0  0  0  0  0  0  0  0  0  0  0  0
    2.3384    2.3641   -0.4651 C   0  0  0  0  0  0  0  0  0  0  0  0
    3.2751    3.5428   -0.6136 C   0  0  0  0  0  0  0  0  0  0  0  0
    3.6436    4.2848    0.5059 C   0  0  0  0  0  0  0  0  0  0  0  0
    4.5823    5.3036    0.3603 C   0  0  0  0  0  0  0  0  0  0  0  0
    5.0624    6.0755    1.3950 O   0  0  0  0  0  0  0  0  0  0  0  0
    5.2191    5.5313    2.6508 C   0  0  0  0  0  0  0  0  0  0  0  0
    5.5427    4.1945    2.8968 C   0  0  0  0  0  0  0  0  0  0  0  0
    5.6256    3.7437    4.2061 C   0  0  0  0  0  0  0  0  0  0  0  0
    5.8634    2.4453    4.4403 F   0  0  0  0  0  0  0  0  0  0  0  0
    5.4546    4.6115    5.2802 C   0  0  0  0  0  0  0  0  0  0  0  0
    5.2042    5.9614    5.0384 C   0  0  0  0  0  0  0  0  0  0  0  0
    5.0868    6.4181    3.7229 C   0  0  0  0  0  0  0  0  0  0  0  0
    5.0453    5.6250   -0.9095 C   0  0  0  0  0  0  0  0  0  0  0  0
    4.6054    4.8600   -1.9745 C   0  0  0  0  0  0  0  0  0  0  0  0
    3.7541    3.8170   -1.8540 N   0  0  0  0  0  0  0  0  0  0  0  0
    4.0175   -0.5258    1.3555 C   0  0  0  0  0  0  0  0  0  0  0  0
    4.2711   -0.9651    2.6509 C   0  0  0  0  0  0  0  0  0  0  0  0
    4.9517   -2.1712    2.8282 C   0  0  0  0  0  0  0  0  0  0  0  0
    5.2142   -2.6593    4.1410 N   0  0  0  0  0  0  0  0  0  0  0  0
    5.9185   -3.7934    4.4898 C   0  0  0  0  0  0  0  0  0  0  0  0
    5.8948   -3.8540    5.8637 C   0  0  0  0  0  0  0  0  0  0  0  0
    5.1991   -2.8029    6.3816 N   0  0  0  0  0  0  0  0  0  0  0  0
    4.8072   -2.1061    5.3378 C   0  0  0  0  0  0  0  0  0  0  0  0
    5.3574   -2.8829    1.6957 C   0  0  0  0  0  0  0  0  0  0  0  0
    5.0507   -2.3657    0.4417 C   0  0  0  0  0  0  0  0  0  0  0  0
    4.3887   -1.2051    0.2381 N   0  0  0  0  0  0  0  0  0  0  0  0
    3.4232    0.5596   -0.8736 H   0  0  0  0  0  0  0  0  0  0  0  0
    1.5884    2.5815    0.3044 H   0  0  0  0  0  0  0  0  0  0  0  0
    1.8045    2.1960   -1.4058 H   0  0  0  0  0  0  0  0  0  0  0  0
    3.2169    4.0425    1.4743 H   0  0  0  0  0  0  0  0  0  0  0  0
    5.7068    3.4850    2.0925 H   0  0  0  0  0  0  0  0  0  0  0  0
    5.5218    4.2307    6.2924 H   0  0  0  0  0  0  0  0  0  0  0  0
    5.0932    6.6521    5.8693 H   0  0  0  0  0  0  0  0  0  0  0  0
    4.8846    7.4704    3.5353 H   0  0  0  0  0  0  0  0  0  0  0  0
    5.7360    6.4458   -1.0642 H   0  0  0  0  0  0  0  0  0  0  0  0
    4.9399    5.0690   -2.9867 H   0  0  0  0  0  0  0  0  0  0  0  0
    3.9346   -0.3483    3.4765 H   0  0  0  0  0  0  0  0  0  0  0  0
    6.3807   -4.4527    3.7716 H   0  0  0  0  0  0  0  0  0  0  0  0
    6.3443   -4.6008    6.5055 H   0  0  0  0  0  0  0  0  0  0  0  0
    4.2190   -1.2015    5.4057 H   0  0  0  0  0  0  0  0  0  0  0  0
    5.8921   -3.8246    1.7484 H   0  0  0  0  0  0  0  0  0  0  0  0
    5.3414   -2.8987   -0.4614 H   0  0  0  0  0  0  0  0  0  0  0  0
  1  2  2  0  0  0  0
  2  3  1  0  0  0  0
  2 19  1  0  0  0  0
  3  4  1  0  0  0  0
  3 30  1  0  0  0  0
  4  5  1  0  0  0  0
  4 31  1  0  0  0  0
  4 32  1  0  0  0  0
  5  6  2  0  0  0  0
  5 18  1  0  0  0  0
  6  7  1  0  0  0  0
  6 33  1  0  0  0  0
  7  8  1  0  0  0  0
  7 16  2  0  0  0  0
  8  9  1  0  0  0  0
  9 10  2  0  0  0  0
  9 15  1  0  0  0  0
 10 11  1  0  0  0  0
 10 34  1  0  0  0  0
 11 12  1  0  0  0  0
 11 13  2  0  0  0  0
 13 14  1  0  0  0  0
 13 35  1  0  0  0  0
 14 15  2  0  0  0  0
 14 36  1  0  0  0  0
 15 37  1  0  0  0  0
 16 17  1  0  0  0  0
 16 38  1  0  0  0  0
 17 18  2  0  0  0  0
 17 39  1  0  0  0  0
 19 20  2  0  0  0  0
 19 29  1  0  0  0  0
 20 21  1  0  0  0  0
 20 40  1  0  0  0  0
 21 22  1  0  0  0  0
 21 27  2  0  0  0  0
 22 23  1  0  0  0  0
 22 26  1  0  0  0  0
 23 24  2  0  0  0  0
 23 41  1  0  0  0  0
 24 25  1  0  0  0  0
 24 42  1  0  0  0  0
 25 26  2  0  0  0  0
 26 43  1  0  0  0  0
 27 28  1  0  0  0  0
 27 44  1  0  0  0  0
 28 29  2  0  0  0  0
 28 45  1  0  0  0  0
M  END
$$$$
