
 OpenBabel01122422403D

 47 50  0  0  0  0  0  0  0  0999 V2000
    0.9509    0.2173   -0.5959 C   0  0  0  0  0  0  0  0  0  0  0  0
    2.3945    0.0378   -0.1934 C   0  0  0  0  0  0  0  0  0  0  0  0
    3.0021   -1.1360    0.0874 C   0  0  0  0  0  0  0  0  0  0  0  0
    2.2883   -2.4660    0.0571 C   0  0  0  0  0  0  0  0  0  0  0  0
    1.0740   -2.5900    0.1509 O   0  0  0  0  0  0  0  0  0  0  0  0
    3.1230   -3.5510   -0.0818 N   0  0  0  0  0  0  0  0  0  0  0  0
    2.5581   -4.8734   -0.2110 C   0  0  0  0  0  0  0  0  0  0  0  0
    3.6099   -5.9328   -0.3895 C   0  0  0  0  0  0  0  0  0  0  0  0
    4.1277   -6.6128    0.7207 C   0  0  0  0  0  0  0  0  0  0  0  0
    5.1153   -7.5872    0.5572 C   0  0  0  0  0  0  0  0  0  0  0  0
    5.6033   -7.8914   -0.7183 C   0  0  0  0  0  0  0  0  0  0  0  0
    6.6892   -8.8712   -0.8752 C   0  0  0  0  0  0  0  0  0  0  0  0
    6.3828  -10.1720   -1.0298 C   0  0  0  0  0  0  0  0  0  0  0  0
    7.3735  -11.1166   -1.1504 N   0  0  0  0  0  0  0  0  0  0  0  0
    8.7176  -10.8301   -1.1182 C   0  0  0  0  0  0  0  0  0  0  0  0
    9.5830  -11.6912   -1.2069 O   0  0  0  0  0  0  0  0  0  0  0  0
    9.0685   -9.3959   -0.9675 C   0  0  0  0  0  0  0  0  0  0  0  0
    8.0916   -8.4846   -0.8551 C   0  0  0  0  0  0  0  0  0  0  0  0
    5.0859   -7.2196   -1.8306 C   0  0  0  0  0  0  0  0  0  0  0  0
    4.0976   -6.2449   -1.6666 C   0  0  0  0  0  0  0  0  0  0  0  0
    4.3801   -1.2159    0.4173 O   0  0  0  0  0  0  0  0  0  0  0  0
    5.1922   -0.1293    0.5010 C   0  0  0  0  0  0  0  0  0  0  0  0
    6.3699   -0.2271    0.8237 O   0  0  0  0  0  0  0  0  0  0  0  0
    4.5875    1.1744    0.1616 C   0  0  0  0  0  0  0  0  0  0  0  0
    5.4106    2.3151    0.1503 C   0  0  0  0  0  0  0  0  0  0  0  0
    4.8830    3.5606   -0.1813 C   0  0  0  0  0  0  0  0  0  0  0  0
    3.5313    3.6726   -0.4795 C   0  0  0  0  0  0  0  0  0  0  0  0
    2.7130    2.5388   -0.4585 C   0  0  0  0  0  0  0  0  0  0  0  0
    3.2286    1.2638   -0.1557 C   0  0  0  0  0  0  0  0  0  0  0  0
    0.3819   -0.7021   -0.7127 H   0  0  0  0  0  0  0  0  0  0  0  0
    0.8878    0.7144   -1.5708 H   0  0  0  0  0  0  0  0  0  0  0  0
    0.4216    0.8247    0.1470 H   0  0  0  0  0  0  0  0  0  0  0  0
    4.1280   -3.4225   -0.1029 H   0  0  0  0  0  0  0  0  0  0  0  0
    1.8732   -4.8734   -1.0682 H   0  0  0  0  0  0  0  0  0  0  0  0
    1.9463   -5.0809    0.6752 H   0  0  0  0  0  0  0  0  0  0  0  0
    3.7644   -6.3872    1.7215 H   0  0  0  0  0  0  0  0  0  0  0  0
    5.5087   -8.0999    1.4326 H   0  0  0  0  0  0  0  0  0  0  0  0
    5.3618  -10.5416   -1.0584 H   0  0  0  0  0  0  0  0  0  0  0  0
    7.1355  -12.0949   -1.2555 H   0  0  0  0  0  0  0  0  0  0  0  0
   10.1202   -9.1444   -0.9491 H   0  0  0  0  0  0  0  0  0  0  0  0
    8.3301   -7.4312   -0.7457 H   0  0  0  0  0  0  0  0  0  0  0  0
    5.4546   -7.4444   -2.8292 H   0  0  0  0  0  0  0  0  0  0  0  0
    3.7090   -5.7297   -2.5429 H   0  0  0  0  0  0  0  0  0  0  0  0
    6.4694    2.2327    0.3908 H   0  0  0  0  0  0  0  0  0  0  0  0
    5.5233    4.4391   -0.2072 H   0  0  0  0  0  0  0  0  0  0  0  0
    3.1073    4.6411   -0.7366 H   0  0  0  0  0  0  0  0  0  0  0  0
    1.6621    2.6845   -0.6973 H   0  0  0  0  0  0  0  0  0  0  0  0
  1  2  1  0  0  0  0
  1 30  1  0  0  0  0
  1 31  1  0  0  0  0
  1 32  1  0  0  0  0
  2  3  2  0  0  0  0
  2 29  1  0  0  0  0
  3  4  1  0  0  0  0
  3 21  1  0  0  0  0
  4  5  2  0  0  0  0
  4  6  1  0  0  0  0
  6  7  1  0  0  0  0
  6 33  1  0  0  0  0
  7  8  1  0  0  0  0
  7 34  1  0  0  0  0
  7 35  1  0  0  0  0
  8  9  2  0  0  0  0
  8 20  1  0  0  0  0
  9 10  1  0  0  0  0
  9 36  1  0  0  0  0
 10 11  2  0  0  0  0
 10 37  1  0  0  0  0
 11 12  1  0  0  0  0
 11 19  1  0  0  0  0
 12 13  2  0  0  0  0
 12 18  1  0  0  0  0
 13 14  1  0  0  0  0
 13 38  1  0  0  0  0
 14 15  1  0  0  0  0
 14 39  1  0  0  0  0
 15 16  2  0  0  0  0
 15 17  1  0  0  0  0
 17 18  2  0  0  0  0
 17 40  1  0  0  0  0
 18 41  1  0  0  0  0
 19 20  2  0  0  0  0
 19 42  1  0  0  0  0
 20 43  1  0  0  0  0
 21 22  1  0  0  0  0
 22 23  2  0  0  0  0
 22 24  1  0  0  0  0
 24 25  2  0  0  0  0
 24 29  1  0  0  0  0
 25 26  1  0  0  0  0
 25 44  1  0  0  0  0
 26 27  2  0  0  0  0
 26 45  1  0  0  0  0
 27 28  1  0  0  0  0
 27 46  1  0  0  0  0
 28 29  2  0  0  0  0
 28 47  1  0  0  0  0
M  END
$$$$
