
 OpenBabel01122422403D

 48 51  0  0  0  0  0  0  0  0999 V2000
    1.6260   -1.0152    1.1980 C   0  0  0  0  0  0  0  0  0  0  0  0
    2.7315   -0.3936    0.4264 C   0  0  0  0  0  0  0  0  0  0  0  0
    3.8050    0.3126    0.9362 C   0  0  0  0  0  0  0  0  0  0  0  0
    4.6128    0.7412   -0.0993 N   0  0  0  0  0  0  0  0  0  0  0  0
    5.8252    1.4848    0.0134 C   0  0  0  0  0  0  0  0  0  0  0  0
    6.3577    1.8136    1.2726 C   0  0  0  0  0  0  0  0  0  0  0  0
    7.5774    2.4952    1.3793 C   0  0  0  0  0  0  0  0  0  0  0  0
    8.2651    2.8584    0.2217 C   0  0  0  0  0  0  0  0  0  0  0  0
    9.6088    3.4754    0.2316 C   0  0  0  0  0  0  0  0  0  0  0  0
   10.3439    3.1730   -0.7041 O   0  0  0  0  0  0  0  0  0  0  0  0
    9.9320    4.3050    1.2962 N   0  0  0  0  0  0  0  0  0  0  0  0
   11.1358    5.0426    1.3879 C   0  0  0  0  0  0  0  0  0  0  0  0
   11.9366    5.2774    0.2687 C   0  0  0  0  0  0  0  0  0  0  0  0
   13.1373    5.9815    0.3477 C   0  0  0  0  0  0  0  0  0  0  0  0
   13.9165    6.2594   -0.8005 N   0  0  0  0  0  0  0  0  0  0  0  0
   13.4444    6.2163   -2.1006 C   0  0  0  0  0  0  0  0  0  0  0  0
   12.2956    5.9963   -2.4724 O   0  0  0  0  0  0  0  0  0  0  0  0
   14.4250    6.5935   -3.1405 C   0  0  0  0  0  0  0  0  0  0  0  0
   15.7456    6.6411   -3.1818 C   0  0  0  0  0  0  0  0  0  0  0  0
   16.2629    7.0459   -4.4203 O   0  0  0  0  0  0  0  0  0  0  0  0
   15.0985    7.2343   -5.1578 C   0  0  0  0  0  0  0  0  0  0  0  0
   15.0696    7.5940   -6.3244 O   0  0  0  0  0  0  0  0  0  0  0  0
   14.0141    6.9591   -4.3786 N   0  0  0  0  0  0  0  0  0  0  0  0
   13.5686    6.4243    1.5971 C   0  0  0  0  0  0  0  0  0  0  0  0
   12.7581    6.2349    2.7244 C   0  0  0  0  0  0  0  0  0  0  0  0
   11.5324    5.5657    2.6169 C   0  0  0  0  0  0  0  0  0  0  0  0
    7.7272    2.5508   -1.0335 C   0  0  0  0  0  0  0  0  0  0  0  0
    6.5170    1.8709   -1.1400 C   0  0  0  0  0  0  0  0  0  0  0  0
    4.0292    0.2966   -1.2717 C   0  0  0  0  0  0  0  0  0  0  0  0
    2.8854   -0.4105   -0.9736 C   0  0  0  0  0  0  0  0  0  0  0  0
    1.7080   -0.7905    2.2660 H   0  0  0  0  0  0  0  0  0  0  0  0
    1.6409   -2.1023    1.0738 H   0  0  0  0  0  0  0  0  0  0  0  0
    0.6607   -0.6377    0.8440 H   0  0  0  0  0  0  0  0  0  0  0  0
    4.0378    0.5375    1.9660 H   0  0  0  0  0  0  0  0  0  0  0  0
    5.8674    1.5252    2.1978 H   0  0  0  0  0  0  0  0  0  0  0  0
    7.9910    2.6755    2.3653 H   0  0  0  0  0  0  0  0  0  0  0  0
    9.2981    4.3697    2.0792 H   0  0  0  0  0  0  0  0  0  0  0  0
   11.6146    4.9090   -0.6941 H   0  0  0  0  0  0  0  0  0  0  0  0
   14.8340    6.6490   -0.6361 H   0  0  0  0  0  0  0  0  0  0  0  0
   16.4884    6.3962   -2.4420 H   0  0  0  0  0  0  0  0  0  0  0  0
   13.0467    6.9868   -4.6777 H   0  0  0  0  0  0  0  0  0  0  0  0
   14.5097    6.9547    1.7092 H   0  0  0  0  0  0  0  0  0  0  0  0
   13.0827    6.6127    3.6913 H   0  0  0  0  0  0  0  0  0  0  0  0
   10.9243    5.4304    3.5066 H   0  0  0  0  0  0  0  0  0  0  0  0
    8.2665    2.8173   -1.9421 H   0  0  0  0  0  0  0  0  0  0  0  0
    6.1646    1.6496   -2.1419 H   0  0  0  0  0  0  0  0  0  0  0  0
    4.4629    0.4960   -2.2420 H   0  0  0  0  0  0  0  0  0  0  0  0
    2.2375   -0.8812   -1.7000 H   0  0  0  0  0  0  0  0  0  0  0  0
  1  2  1  0  0  0  0
  1 31  1  0  0  0  0
  1 32  1  0  0  0  0
  1 33  1  0  0  0  0
  2  3  2  0  0  0  0
  2 30  1  0  0  0  0
  3  4  1  0  0  0  0
  3 34  1  0  0  0  0
  4  5  1  0  0  0  0
  4 29  1  0  0  0  0
  5  6  2  0  0  0  0
  5 28  1  0  0  0  0
  6  7  1  0  0  0  0
  6 35  1  0  0  0  0
  7  8  2  0  0  0  0
  7 36  1  0  0  0  0
  8  9  1  0  0  0  0
  8 27  1  0  0  0  0
  9 10  2  0  0  0  0
  9 11  1  0  0  0  0
 11 12  1  0  0  0  0
 11 37  1  0  0  0  0
 12 13  2  0  0  0  0
 12 26  1  0  0  0  0
 13 14  1  0  0  0  0
 13 38  1  0  0  0  0
 14 15  1  0  0  0  0
 14 24  2  0  0  0  0
 15 16  1  0  0  0  0
 15 39  1  0  0  0  0
 16 17  2  0  0  0  0
 16 18  1  0  0  0  0
 18 19  2  0  0  0  0
 18 23  1  0  0  0  0
 19 20  1  0  0  0  0
 19 40  1  0  0  0  0
 20 21  1  0  0  0  0
 21 22  2  0  0  0  0
 21 23  1  0  0  0  0
 23 41  1  0  0  0  0
 24 25  1  0  0  0  0
 24 42  1  0  0  0  0
 25 26  2  0  0  0  0
 25 43  1  0  0  0  0
 26 44  1  0  0  0  0
 27 28  2  0  0  0  0
 27 45  1  0  0  0  0
 28 46  1  0  0  0  0
 29 30  2  0  0  0  0
 29 47  1  0  0  0  0
 30 48  1  0  0  0  0
M  END
$$$$
