
 OpenBabel01122422353D

 48 51  0  0  0  0  0  0  0  0999 V2000
    6.0305    1.3323    0.9027 C   0  0  0  0  0  0  0  0  0  0  0  0
    5.5072    0.1547    1.5608 N   0  0  0  0  0  0  0  0  0  0  0  0
    4.7561    0.3273    2.7104 C   0  0  0  0  0  0  0  0  0  0  0  0
    4.5297    1.4049    3.2579 O   0  0  0  0  0  0  0  0  0  0  0  0
    4.2202   -0.8981    3.3243 C   0  0  0  0  0  0  0  0  0  0  0  0
    4.5316   -2.0810    2.8046 C   0  0  0  0  0  0  0  0  0  0  0  0
    5.3450   -2.2024    1.6962 N   0  0  0  0  0  0  0  0  0  0  0  0
    5.7278   -3.5355    1.2135 C   0  0  0  0  0  0  0  0  0  0  0  0
    4.5708   -4.4526    0.7881 C   0  0  0  0  0  0  0  0  0  0  0  0
    3.5513   -4.5819    1.4643 O   0  0  0  0  0  0  0  0  0  0  0  0
    4.8107   -5.1566   -0.3870 N   0  0  0  0  0  0  0  0  0  0  0  0
    3.9205   -6.1763   -0.7893 C   0  0  0  0  0  0  0  0  0  0  0  0
    3.9058   -7.3571   -0.0299 C   0  0  0  0  0  0  0  0  0  0  0  0
    2.9611   -8.3476   -0.2821 C   0  0  0  0  0  0  0  0  0  0  0  0
    2.0738   -8.1962   -1.3378 C   0  0  0  0  0  0  0  0  0  0  0  0
    2.1311   -7.0500   -2.1356 C   0  0  0  0  0  0  0  0  0  0  0  0
    3.0213   -5.9839   -1.8621 C   0  0  0  0  0  0  0  0  0  0  0  0
    2.8966   -4.7137   -2.6328 C   0  0  0  0  0  0  0  0  0  0  0  0
    1.6271   -4.2727   -3.0500 C   0  0  0  0  0  0  0  0  0  0  0  0
    1.4560   -3.1035   -3.7918 C   0  0  0  0  0  0  0  0  0  0  0  0
    2.5559   -2.3166   -4.1316 C   0  0  0  0  0  0  0  0  0  0  0  0
    2.4060   -1.1870   -4.9493 C   0  0  0  0  0  0  0  0  0  0  0  0
    3.5101   -0.4110   -5.2905 C   0  0  0  0  0  0  0  0  0  0  0  0
    4.7599   -0.7078   -4.7548 C   0  0  0  0  0  0  0  0  0  0  0  0
    4.9219   -1.8295   -3.9387 C   0  0  0  0  0  0  0  0  0  0  0  0
    3.8356   -2.6785   -3.6654 C   0  0  0  0  0  0  0  0  0  0  0  0
    3.9902   -3.8875   -2.9557 C   0  0  0  0  0  0  0  0  0  0  0  0
    5.8674   -1.0835    1.0430 C   0  0  0  0  0  0  0  0  0  0  0  0
    6.6334   -1.1889    0.0778 O   0  0  0  0  0  0  0  0  0  0  0  0
    5.6747    2.2619    1.3551 H   0  0  0  0  0  0  0  0  0  0  0  0
    5.7288    1.3134   -0.1498 H   0  0  0  0  0  0  0  0  0  0  0  0
    7.1241    1.3086    0.9500 H   0  0  0  0  0  0  0  0  0  0  0  0
    3.5836   -0.7820    4.1922 H   0  0  0  0  0  0  0  0  0  0  0  0
    4.1422   -2.9955    3.2458 H   0  0  0  0  0  0  0  0  0  0  0  0
    6.2649   -4.0400    2.0262 H   0  0  0  0  0  0  0  0  0  0  0  0
    6.4331   -3.4506    0.3790 H   0  0  0  0  0  0  0  0  0  0  0  0
    5.7790   -5.2996   -0.6509 H   0  0  0  0  0  0  0  0  0  0  0  0
    4.5877   -7.4807    0.8067 H   0  0  0  0  0  0  0  0  0  0  0  0
    2.9018   -9.2217    0.3602 H   0  0  0  0  0  0  0  0  0  0  0  0
    1.3170   -8.9527   -1.5299 H   0  0  0  0  0  0  0  0  0  0  0  0
    1.4280   -6.9827   -2.9644 H   0  0  0  0  0  0  0  0  0  0  0  0
    0.7342   -4.8410   -2.7987 H   0  0  0  0  0  0  0  0  0  0  0  0
    0.4523   -2.8186   -4.0961 H   0  0  0  0  0  0  0  0  0  0  0  0
    1.4282   -0.9260   -5.3458 H   0  0  0  0  0  0  0  0  0  0  0  0
    3.3909    0.4261   -5.9724 H   0  0  0  0  0  0  0  0  0  0  0  0
    5.6129   -0.0749   -4.9841 H   0  0  0  0  0  0  0  0  0  0  0  0
    5.9051   -2.0383   -3.5221 H   0  0  0  0  0  0  0  0  0  0  0  0
    4.9972   -4.1873   -2.6806 H   0  0  0  0  0  0  0  0  0  0  0  0
  1  2  1  0  0  0  0
  1 30  1  0  0  0  0
  1 31  1  0  0  0  0
  1 32  1  0  0  0  0
  2  3  1  0  0  0  0
  2 28  1  0  0  0  0
  3  4  2  0  0  0  0
  3  5  1  0  0  0  0
  5  6  2  0  0  0  0
  5 33  1  0  0  0  0
  6  7  1  0  0  0  0
  6 34  1  0  0  0  0
  7  8  1  0  0  0  0
  7 28  1  0  0  0  0
  8  9  1  0  0  0  0
  8 35  1  0  0  0  0
  8 36  1  0  0  0  0
  9 10  2  0  0  0  0
  9 11  1  0  0  0  0
 11 12  1  0  0  0  0
 11 37  1  0  0  0  0
 12 13  2  0  0  0  0
 12 17  1  0  0  0  0
 13 14  1  0  0  0  0
 13 38  1  0  0  0  0
 14 15  2  0  0  0  0
 14 39  1  0  0  0  0
 15 16  1  0  0  0  0
 15 40  1  0  0  0  0
 16 17  2  0  0  0  0
 16 41  1  0  0  0  0
 17 18  1  0  0  0  0
 18 19  2  0  0  0  0
 18 27  1  0  0  0  0
 19 20  1  0  0  0  0
 19 42  1  0  0  0  0
 20 21  2  0  0  0  0
 20 43  1  0  0  0  0
 21 22  1  0  0  0  0
 21 26  1  0  0  0  0
 22 23  2  0  0  0  0
 22 44  1  0  0  0  0
 23 24  1  0  0  0  0
 23 45  1  0  0  0  0
 24 25  2  0  0  0  0
 24 46  1  0  0  0  0
 25 26  1  0  0  0  0
 25 47  1  0  0  0  0
 26 27  2  0  0  0  0
 27 48  1  0  0  0  0
 28 29  2  0  0  0  0
M  END
$$$$
