
 OpenBabel01122422403D

 45 48  0  0  0  0  0  0  0  0999 V2000
   -2.7713    2.4100    1.1027 C   0  0  0  0  0  0  0  0  0  0  0  0
   -1.4135    2.0929    0.6970 N   0  0  0  0  0  0  0  0  0  0  0  0
   -0.5713    3.1013    0.2725 C   0  0  0  0  0  0  0  0  0  0  0  0
    0.7079    2.8774   -0.0379 C   0  0  0  0  0  0  0  0  0  0  0  0
    1.2519    1.5289    0.0898 C   0  0  0  0  0  0  0  0  0  0  0  0
    2.6084    1.2860   -0.1451 C   0  0  0  0  0  0  0  0  0  0  0  0
    3.1394   -0.0021   -0.0190 C   0  0  0  0  0  0  0  0  0  0  0  0
    4.5110   -0.2780   -0.1802 N   0  0  0  0  0  0  0  0  0  0  0  0
    5.5410    0.6503   -0.1502 C   0  0  0  0  0  0  0  0  0  0  0  0
    5.4164    1.8545    0.0507 O   0  0  0  0  0  0  0  0  0  0  0  0
    6.8719    0.0668   -0.3224 C   0  0  0  0  0  0  0  0  0  0  0  0
    7.0682   -1.2394   -0.5743 N   0  0  0  0  0  0  0  0  0  0  0  0
    8.4431   -1.4020   -0.6551 O   0  0  0  0  0  0  0  0  0  0  0  0
    9.0579   -0.2083   -0.4349 C   0  0  0  0  0  0  0  0  0  0  0  0
   10.5368   -0.2057   -0.4199 C   0  0  0  0  0  0  0  0  0  0  0  0
   10.9693    0.0878   -1.7448 O   0  0  0  0  0  0  0  0  0  0  0  0
   12.3217    0.0580   -1.9591 C   0  0  0  0  0  0  0  0  0  0  0  0
   13.3010   -0.1175   -0.9762 C   0  0  0  0  0  0  0  0  0  0  0  0
   14.6534   -0.1353   -1.3282 C   0  0  0  0  0  0  0  0  0  0  0  0
   15.0210    0.0274   -2.6581 C   0  0  0  0  0  0  0  0  0  0  0  0
   16.3176    0.0041   -2.9907 F   0  0  0  0  0  0  0  0  0  0  0  0
   14.0615    0.2142   -3.6446 C   0  0  0  0  0  0  0  0  0  0  0  0
   12.7102    0.2317   -3.2928 C   0  0  0  0  0  0  0  0  0  0  0  0
    8.1063    0.7564   -0.2298 C   0  0  0  0  0  0  0  0  0  0  0  0
    2.2829   -1.0658    0.2886 C   0  0  0  0  0  0  0  0  0  0  0  0
    0.9270   -0.8291    0.5434 C   0  0  0  0  0  0  0  0  0  0  0  0
    0.4186    0.4716    0.4613 C   0  0  0  0  0  0  0  0  0  0  0  0
   -1.0019    0.7567    0.8013 C   0  0  0  0  0  0  0  0  0  0  0  0
   -1.7358   -0.1572    1.1690 O   0  0  0  0  0  0  0  0  0  0  0  0
   -3.0174    3.4576    0.9051 H   0  0  0  0  0  0  0  0  0  0  0  0
   -2.8689    2.2124    2.1752 H   0  0  0  0  0  0  0  0  0  0  0  0
   -3.4720    1.7660    0.5626 H   0  0  0  0  0  0  0  0  0  0  0  0
   -0.9912    4.1010    0.1976 H   0  0  0  0  0  0  0  0  0  0  0  0
    1.3547    3.6811   -0.3741 H   0  0  0  0  0  0  0  0  0  0  0  0
    3.2372    2.1228   -0.4326 H   0  0  0  0  0  0  0  0  0  0  0  0
    4.8053   -1.2498   -0.2148 H   0  0  0  0  0  0  0  0  0  0  0  0
   10.9026   -1.1877   -0.0971 H   0  0  0  0  0  0  0  0  0  0  0  0
   10.8860    0.5702    0.2721 H   0  0  0  0  0  0  0  0  0  0  0  0
   13.0532   -0.2434    0.0728 H   0  0  0  0  0  0  0  0  0  0  0  0
   15.4206   -0.2776   -0.5733 H   0  0  0  0  0  0  0  0  0  0  0  0
   14.3682    0.3401   -4.6783 H   0  0  0  0  0  0  0  0  0  0  0  0
   11.9556    0.3753   -4.0618 H   0  0  0  0  0  0  0  0  0  0  0  0
    8.2602    1.8050   -0.0195 H   0  0  0  0  0  0  0  0  0  0  0  0
    2.6604   -2.0815    0.3784 H   0  0  0  0  0  0  0  0  0  0  0  0
    0.2739   -1.6530    0.8243 H   0  0  0  0  0  0  0  0  0  0  0  0
  1  2  1  0  0  0  0
  1 30  1  0  0  0  0
  1 31  1  0  0  0  0
  1 32  1  0  0  0  0
  2  3  1  0  0  0  0
  2 28  1  0  0  0  0
  3  4  2  0  0  0  0
  3 33  1  0  0  0  0
  4  5  1  0  0  0  0
  4 34  1  0  0  0  0
  5  6  2  0  0  0  0
  5 27  1  0  0  0  0
  6  7  1  0  0  0  0
  6 35  1  0  0  0  0
  7  8  1  0  0  0  0
  7 25  2  0  0  0  0
  8  9  1  0  0  0  0
  8 36  1  0  0  0  0
  9 10  2  0  0  0  0
  9 11  1  0  0  0  0
 11 12  2  0  0  0  0
 11 24  1  0  0  0  0
 12 13  1  0  0  0  0
 13 14  1  0  0  0  0
 14 15  1  0  0  0  0
 14 24  2  0  0  0  0
 15 16  1  0  0  0  0
 15 37  1  0  0  0  0
 15 38  1  0  0  0  0
 16 17  1  0  0  0  0
 17 18  2  0  0  0  0
 17 23  1  0  0  0  0
 18 19  1  0  0  0  0
 18 39  1  0  0  0  0
 19 20  2  0  0  0  0
 19 40  1  0  0  0  0
 20 21  1  0  0  0  0
 20 22  1  0  0  0  0
 22 23  2  0  0  0  0
 22 41  1  0  0  0  0
 23 42  1  0  0  0  0
 24 43  1  0  0  0  0
 25 26  1  0  0  0  0
 25 44  1  0  0  0  0
 26 27  2  0  0  0  0
 26 45  1  0  0  0  0
 27 28  1  0  0  0  0
 28 29  2  0  0  0  0
M  END
$$$$
