
 OpenBabel01122422403D

 53 56  0  0  0  0  0  0  0  0999 V2000
   10.5413   -0.3021   -2.4711 C   0  0  0  0  0  0  0  0  0  0  0  0
   11.6185   -0.9590   -1.7990 O   0  0  0  0  0  0  0  0  0  0  0  0
   11.3348   -1.4056   -0.5326 C   0  0  0  0  0  0  0  0  0  0  0  0
   10.0705   -1.9586   -0.2463 C   0  0  0  0  0  0  0  0  0  0  0  0
    9.7479   -2.2813    1.0764 C   0  0  0  0  0  0  0  0  0  0  0  0
   10.7144   -2.1444    2.0590 C   0  0  0  0  0  0  0  0  0  0  0  0
   12.0107   -1.7096    1.7929 C   0  0  0  0  0  0  0  0  0  0  0  0
   12.3170   -1.3257    0.4738 C   0  0  0  0  0  0  0  0  0  0  0  0
   13.6095   -0.8757    0.3817 O   0  0  0  0  0  0  0  0  0  0  0  0
   14.1116   -0.4468   -0.8723 C   0  0  0  0  0  0  0  0  0  0  0  0
   10.0815   -2.5207    3.2118 N   0  0  0  0  0  0  0  0  0  0  0  0
    8.7762   -2.8219    2.9056 C   0  0  0  0  0  0  0  0  0  0  0  0
    7.7968   -3.2086    3.9537 C   0  0  0  0  0  0  0  0  0  0  0  0
    7.8855   -4.6235    4.1662 O   0  0  0  0  0  0  0  0  0  0  0  0
    8.8938   -5.0279    4.9859 C   0  0  0  0  0  0  0  0  0  0  0  0
    9.6964   -4.2747    5.5280 O   0  0  0  0  0  0  0  0  0  0  0  0
    8.8837   -6.5362    5.1409 C   0  0  0  0  0  0  0  0  0  0  0  0
    9.6409   -7.1382    4.1016 O   0  0  0  0  0  0  0  0  0  0  0  0
    9.7707   -8.5014    4.1499 C   0  0  0  0  0  0  0  0  0  0  0  0
    9.2253   -9.3341    5.1301 C   0  0  0  0  0  0  0  0  0  0  0  0
    9.4551  -10.7103    5.0911 C   0  0  0  0  0  0  0  0  0  0  0  0
   10.2182  -11.2627    4.0657 C   0  0  0  0  0  0  0  0  0  0  0  0
   10.7150  -10.4484    3.0460 C   0  0  0  0  0  0  0  0  0  0  0  0
   11.4668  -10.9272    1.9946 O   0  0  0  0  0  0  0  0  0  0  0  0
   11.1042  -12.1463    1.4273 C   0  0  0  0  0  0  0  0  0  0  0  0
   12.1018  -12.8398    0.7572 C   0  0  0  0  0  0  0  0  0  0  0  0
   11.7839  -14.0737    0.1943 C   0  0  0  0  0  0  0  0  0  0  0  0
   10.4877  -14.5648    0.3139 C   0  0  0  0  0  0  0  0  0  0  0  0
    9.5526  -13.7901    0.9787 C   0  0  0  0  0  0  0  0  0  0  0  0
    9.8284  -12.5884    1.5249 N   0  0  0  0  0  0  0  0  0  0  0  0
   10.5191   -9.0655    3.1100 C   0  0  0  0  0  0  0  0  0  0  0  0
    8.5587   -2.7131    1.6091 N   0  0  0  0  0  0  0  0  0  0  0  0
   10.9274    0.6273   -2.8993 H   0  0  0  0  0  0  0  0  0  0  0  0
    9.6996   -0.0274   -1.8244 H   0  0  0  0  0  0  0  0  0  0  0  0
   10.1894   -0.9397   -3.2875 H   0  0  0  0  0  0  0  0  0  0  0  0
    9.3171   -2.1076   -1.0098 H   0  0  0  0  0  0  0  0  0  0  0  0
   12.7565   -1.6334    2.5776 H   0  0  0  0  0  0  0  0  0  0  0  0
   15.1484   -0.1308   -0.7144 H   0  0  0  0  0  0  0  0  0  0  0  0
   13.5659    0.4260   -1.2421 H   0  0  0  0  0  0  0  0  0  0  0  0
   14.1283   -1.2646   -1.5989 H   0  0  0  0  0  0  0  0  0  0  0  0
   10.4909   -2.5730    4.1370 H   0  0  0  0  0  0  0  0  0  0  0  0
    6.7802   -2.9897    3.6113 H   0  0  0  0  0  0  0  0  0  0  0  0
    7.9468   -2.6523    4.8872 H   0  0  0  0  0  0  0  0  0  0  0  0
    7.8414   -6.8779    5.1184 H   0  0  0  0  0  0  0  0  0  0  0  0
    9.3106   -6.7573    6.1262 H   0  0  0  0  0  0  0  0  0  0  0  0
    8.6190   -8.9512    5.9431 H   0  0  0  0  0  0  0  0  0  0  0  0
    9.0335  -11.3570    5.8557 H   0  0  0  0  0  0  0  0  0  0  0  0
   10.3936  -12.3345    4.0557 H   0  0  0  0  0  0  0  0  0  0  0  0
   13.1046  -12.4349    0.6853 H   0  0  0  0  0  0  0  0  0  0  0  0
   12.5411  -14.6496   -0.3301 H   0  0  0  0  0  0  0  0  0  0  0  0
   10.2102  -15.5265   -0.1029 H   0  0  0  0  0  0  0  0  0  0  0  0
    8.5269  -14.1263    1.1000 H   0  0  0  0  0  0  0  0  0  0  0  0
   10.9415   -8.4247    2.3401 H   0  0  0  0  0  0  0  0  0  0  0  0
  1  2  1  0  0  0  0
  1 33  1  0  0  0  0
  1 34  1  0  0  0  0
  1 35  1  0  0  0  0
  2  3  1  0  0  0  0
  3  4  2  0  0  0  0
  3  8  1  0  0  0  0
  4  5  1  0  0  0  0
  4 36  1  0  0  0  0
  5  6  2  0  0  0  0
  5 32  1  0  0  0  0
  6  7  1  0  0  0  0
  6 11  1  0  0  0  0
  7  8  2  0  0  0  0
  7 37  1  0  0  0  0
  8  9  1  0  0  0  0
  9 10  1  0  0  0  0
 10 38  1  0  0  0  0
 10 39  1  0  0  0  0
 10 40  1  0  0  0  0
 11 12  1  0  0  0  0
 11 41  1  0  0  0  0
 12 13  1  0  0  0  0
 12 32  2  0  0  0  0
 13 14  1  0  0  0  0
 13 42  1  0  0  0  0
 13 43  1  0  0  0  0
 14 15  1  0  0  0  0
 15 16  2  0  0  0  0
 15 17  1  0  0  0  0
 17 18  1  0  0  0  0
 17 44  1  0  0  0  0
 17 45  1  0  0  0  0
 18 19  1  0  0  0  0
 19 20  2  0  0  0  0
 19 31  1  0  0  0  0
 20 21  1  0  0  0  0
 20 46  1  0  0  0  0
 21 22  2  0  0  0  0
 21 47  1  0  0  0  0
 22 23  1  0  0  0  0
 22 48  1  0  0  0  0
 23 24  1  0  0  0  0
 23 31  2  0  0  0  0
 24 25  1  0  0  0  0
 25 26  2  0  0  0  0
 25 30  1  0  0  0  0
 26 27  1  0  0  0  0
 26 49  1  0  0  0  0
 27 28  2  0  0  0  0
 27 50  1  0  0  0  0
 28 29  1  0  0  0  0
 28 51  1  0  0  0  0
 29 30  2  0  0  0  0
 29 52  1  0  0  0  0
 31 53  1  0  0  0  0
M  END
$$$$
