
 OpenBabel01122422403D

 43 46  0  0  0  0  0  0  0  0999 V2000
    1.0769    0.4106    0.3206 O   0  0  0  0  0  0  0  0  0  0  0  0
    2.2542    0.1946    0.0584 C   0  0  0  0  0  0  0  0  0  0  0  0
    2.9017    0.4991   -1.1176 N   0  0  0  0  0  0  0  0  0  0  0  0
    2.3153    1.2118   -2.1345 C   0  0  0  0  0  0  0  0  0  0  0  0
    2.7113    1.0192   -3.3924 N   0  0  0  0  0  0  0  0  0  0  0  0
    1.8782    1.7928   -4.1384 N   0  0  0  0  0  0  0  0  0  0  0  0
    1.8562    1.6994   -5.5569 C   0  0  0  0  0  0  0  0  0  0  0  0
    1.1506    2.6278   -6.3235 C   0  0  0  0  0  0  0  0  0  0  0  0
    1.1401    2.4659   -7.6973 C   0  0  0  0  0  0  0  0  0  0  0  0
    1.7519    1.4503   -8.3398 N   0  0  0  0  0  0  0  0  0  0  0  0
    2.4265    0.5390   -7.5860 C   0  0  0  0  0  0  0  0  0  0  0  0
    3.0708   -0.6323   -8.2966 C   0  0  0  0  0  0  0  0  0  0  0  0
    4.4199   -0.6936   -8.1024 F   0  0  0  0  0  0  0  0  0  0  0  0
    2.5845   -1.8363   -7.8747 F   0  0  0  0  0  0  0  0  0  0  0  0
    2.5133    0.6417   -6.1977 C   0  0  0  0  0  0  0  0  0  0  0  0
    1.1014    2.6017   -3.3393 C   0  0  0  0  0  0  0  0  0  0  0  0
    1.3242    2.2055   -2.0431 C   0  0  0  0  0  0  0  0  0  0  0  0
    3.0782   -0.5107    1.0526 C   0  0  0  0  0  0  0  0  0  0  0  0
    2.5543   -1.5970    1.7229 C   0  0  0  0  0  0  0  0  0  0  0  0
    3.2705   -2.2544    2.6512 N   0  0  0  0  0  0  0  0  0  0  0  0
    4.5362   -1.8149    2.9646 N   0  0  0  0  0  0  0  0  0  0  0  0
    5.0711   -0.7252    2.3572 C   0  0  0  0  0  0  0  0  0  0  0  0
    6.4203   -0.3182    2.7942 C   0  0  0  0  0  0  0  0  0  0  0  0
    7.3410   -1.2637    3.2807 C   0  0  0  0  0  0  0  0  0  0  0  0
    8.6335   -0.8921    3.6689 C   0  0  0  0  0  0  0  0  0  0  0  0
    9.0315    0.4356    3.5836 C   0  0  0  0  0  0  0  0  0  0  0  0
    8.1384    1.3976    3.1279 C   0  0  0  0  0  0  0  0  0  0  0  0
    6.8462    1.0246    2.7403 C   0  0  0  0  0  0  0  0  0  0  0  0
    4.3555   -0.0623    1.3735 C   0  0  0  0  0  0  0  0  0  0  0  0
    3.7346   -0.0035   -1.3918 H   0  0  0  0  0  0  0  0  0  0  0  0
    0.6268    3.4744   -5.8975 H   0  0  0  0  0  0  0  0  0  0  0  0
    0.6177    3.1712   -8.3384 H   0  0  0  0  0  0  0  0  0  0  0  0
    2.8938   -0.5667   -9.3748 H   0  0  0  0  0  0  0  0  0  0  0  0
    3.0525   -0.1178   -5.6357 H   0  0  0  0  0  0  0  0  0  0  0  0
    0.4146    3.3314   -3.7382 H   0  0  0  0  0  0  0  0  0  0  0  0
    0.8496    2.5959   -1.1535 H   0  0  0  0  0  0  0  0  0  0  0  0
    1.5592   -1.9801    1.5316 H   0  0  0  0  0  0  0  0  0  0  0  0
    7.0572   -2.3143    3.3543 H   0  0  0  0  0  0  0  0  0  0  0  0
    9.3254   -1.6484    4.0326 H   0  0  0  0  0  0  0  0  0  0  0  0
   10.0380    0.7239    3.8844 H   0  0  0  0  0  0  0  0  0  0  0  0
    8.4407    2.4399    3.0736 H   0  0  0  0  0  0  0  0  0  0  0  0
    6.1722    1.8118    2.4123 H   0  0  0  0  0  0  0  0  0  0  0  0
    4.7714    0.8068    0.8723 H   0  0  0  0  0  0  0  0  0  0  0  0
  1  2  2  0  0  0  0
  2  3  1  0  0  0  0
  2 18  1  0  0  0  0
  3  4  1  0  0  0  0
  3 30  1  0  0  0  0
  4  5  2  0  0  0  0
  4 17  1  0  0  0  0
  5  6  1  0  0  0  0
  6  7  1  0  0  0  0
  6 16  1  0  0  0  0
  7  8  2  0  0  0  0
  7 15  1  0  0  0  0
  8  9  1  0  0  0  0
  8 31  1  0  0  0  0
  9 10  2  0  0  0  0
  9 32  1  0  0  0  0
 10 11  1  0  0  0  0
 11 12  1  0  0  0  0
 11 15  2  0  0  0  0
 12 13  1  0  0  0  0
 12 14  1  0  0  0  0
 12 33  1  0  0  0  0
 15 34  1  0  0  0  0
 16 17  2  0  0  0  0
 16 35  1  0  0  0  0
 17 36  1  0  0  0  0
 18 19  2  0  0  0  0
 18 29  1  0  0  0  0
 19 20  1  0  0  0  0
 19 37  1  0  0  0  0
 20 21  2  0  0  0  0
 21 22  1  0  0  0  0
 22 23  1  0  0  0  0
 22 29  2  0  0  0  0
 23 24  2  0  0  0  0
 23 28  1  0  0  0  0
 24 25  1  0  0  0  0
 24 38  1  0  0  0  0
 25 26  2  0  0  0  0
 25 39  1  0  0  0  0
 26 27  1  0  0  0  0
 26 40  1  0  0  0  0
 27 28  2  0  0  0  0
 27 41  1  0  0  0  0
 28 42  1  0  0  0  0
 29 43  1  0  0  0  0
M  END
$$$$
