
 OpenBabel01122422403D

 43 46  0  0  0  0  0  0  0  0999 V2000
    0.8103   -0.1073   -0.4253 C   0  0  0  0  0  0  0  0  0  0  0  0
    1.9711   -0.5289   -1.1331 O   0  0  0  0  0  0  0  0  0  0  0  0
    2.8409    0.4518   -1.5269 C   0  0  0  0  0  0  0  0  0  0  0  0
    2.6551    1.8206   -1.3498 C   0  0  0  0  0  0  0  0  0  0  0  0
    3.6218    2.7154   -1.8004 C   0  0  0  0  0  0  0  0  0  0  0  0
    4.7813    2.2434   -2.4188 C   0  0  0  0  0  0  0  0  0  0  0  0
    5.0151    0.8660   -2.5898 C   0  0  0  0  0  0  0  0  0  0  0  0
    6.2776    0.3776   -3.1737 C   0  0  0  0  0  0  0  0  0  0  0  0
    7.4895    1.0219   -2.9684 C   0  0  0  0  0  0  0  0  0  0  0  0
    8.6718    0.6384   -3.4883 N   0  0  0  0  0  0  0  0  0  0  0  0
    8.6465   -0.4707   -4.2518 C   0  0  0  0  0  0  0  0  0  0  0  0
    9.9315   -0.7982   -4.9599 C   0  0  0  0  0  0  0  0  0  0  0  0
   10.9530   -0.1262   -4.8815 O   0  0  0  0  0  0  0  0  0  0  0  0
    9.7715   -1.8570   -5.7987 O   0  0  0  0  0  0  0  0  0  0  0  0
   10.8279   -2.0207   -6.7550 C   0  0  0  0  0  0  0  0  0  0  0  0
   10.5650   -1.0738   -7.8795 C   0  0  0  0  0  0  0  0  0  0  0  0
   10.0006   -1.3359   -9.0423 N   0  0  0  0  0  0  0  0  0  0  0  0
    9.9500   -0.1382   -9.7112 C   0  0  0  0  0  0  0  0  0  0  0  0
   10.5051    0.8813   -8.9421 C   0  0  0  0  0  0  0  0  0  0  0  0
   10.5996    2.2058   -9.3730 C   0  0  0  0  0  0  0  0  0  0  0  0
   10.1056    2.4720  -10.6514 C   0  0  0  0  0  0  0  0  0  0  0  0
   10.1895    3.7240  -11.1244 F   0  0  0  0  0  0  0  0  0  0  0  0
    9.5384    1.4722  -11.4374 C   0  0  0  0  0  0  0  0  0  0  0  0
    9.0716    1.7732  -12.6583 F   0  0  0  0  0  0  0  0  0  0  0  0
    9.4442    0.1552  -10.9850 C   0  0  0  0  0  0  0  0  0  0  0  0
   10.8798    0.2622   -7.7791 N   0  0  0  0  0  0  0  0  0  0  0  0
    7.5463   -1.2049   -4.5129 N   0  0  0  0  0  0  0  0  0  0  0  0
    6.3916   -0.7558   -3.9662 C   0  0  0  0  0  0  0  0  0  0  0  0
    4.0098   -0.0134   -2.1477 C   0  0  0  0  0  0  0  0  0  0  0  0
    0.2466   -1.0010   -0.1417 H   0  0  0  0  0  0  0  0  0  0  0  0
    0.1643    0.5076   -1.0607 H   0  0  0  0  0  0  0  0  0  0  0  0
    1.0784    0.4220    0.4955 H   0  0  0  0  0  0  0  0  0  0  0  0
    1.7715    2.2245   -0.8674 H   0  0  0  0  0  0  0  0  0  0  0  0
    3.4764    3.7847   -1.6656 H   0  0  0  0  0  0  0  0  0  0  0  0
    5.5025    2.9809   -2.7673 H   0  0  0  0  0  0  0  0  0  0  0  0
    7.5585    1.9121   -2.3485 H   0  0  0  0  0  0  0  0  0  0  0  0
   10.8017   -3.0540   -7.1139 H   0  0  0  0  0  0  0  0  0  0  0  0
   11.8170   -1.8583   -6.3082 H   0  0  0  0  0  0  0  0  0  0  0  0
   11.0359    2.9893   -8.7658 H   0  0  0  0  0  0  0  0  0  0  0  0
    8.9993   -0.6159  -11.6015 H   0  0  0  0  0  0  0  0  0  0  0  0
   11.2812    0.7025   -6.9587 H   0  0  0  0  0  0  0  0  0  0  0  0
    5.5223   -1.3585   -4.2196 H   0  0  0  0  0  0  0  0  0  0  0  0
    4.1311   -1.0903   -2.2517 H   0  0  0  0  0  0  0  0  0  0  0  0
  1  2  1  0  0  0  0
  1 30  1  0  0  0  0
  1 31  1  0  0  0  0
  1 32  1  0  0  0  0
  2  3  1  0  0  0  0
  3  4  2  0  0  0  0
  3 29  1  0  0  0  0
  4  5  1  0  0  0  0
  4 33  1  0  0  0  0
  5  6  2  0  0  0  0
  5 34  1  0  0  0  0
  6  7  1  0  0  0  0
  6 35  1  0  0  0  0
  7  8  1  0  0  0  0
  7 29  2  0  0  0  0
  8  9  2  0  0  0  0
  8 28  1  0  0  0  0
  9 10  1  0  0  0  0
  9 36  1  0  0  0  0
 10 11  2  0  0  0  0
 11 12  1  0  0  0  0
 11 27  1  0  0  0  0
 12 13  2  0  0  0  0
 12 14  1  0  0  0  0
 14 15  1  0  0  0  0
 15 16  1  0  0  0  0
 15 37  1  0  0  0  0
 15 38  1  0  0  0  0
 16 17  2  0  0  0  0
 16 26  1  0  0  0  0
 17 18  1  0  0  0  0
 18 19  2  0  0  0  0
 18 25  1  0  0  0  0
 19 20  1  0  0  0  0
 19 26  1  0  0  0  0
 20 21  2  0  0  0  0
 20 39  1  0  0  0  0
 21 22  1  0  0  0  0
 21 23  1  0  0  0  0
 23 24  1  0  0  0  0
 23 25  2  0  0  0  0
 25 40  1  0  0  0  0
 26 41  1  0  0  0  0
 27 28  2  0  0  0  0
 28 42  1  0  0  0  0
 29 43  1  0  0  0  0
M  END
$$$$
