
 OpenBabel01122422403D

 40 43  0  0  0  0  0  0  0  0999 V2000
   11.9206    5.6127    2.6650 N   0  0  0  0  0  0  0  0  0  0  0  0
   10.8348    6.4383    2.7766 C   0  0  0  0  0  0  0  0  0  0  0  0
   10.9692    7.6525    2.8026 O   0  0  0  0  0  0  0  0  0  0  0  0
    9.4951    5.7963    2.8223 C   0  0  0  0  0  0  0  0  0  0  0  0
    9.3051    4.5065    3.3315 C   0  0  0  0  0  0  0  0  0  0  0  0
    8.0193    3.9516    3.3806 C   0  0  0  0  0  0  0  0  0  0  0  0
    6.9095    4.6811    2.9229 C   0  0  0  0  0  0  0  0  0  0  0  0
    5.5170    4.0983    2.9427 C   0  0  0  0  0  0  0  0  0  0  0  0
    4.8801    4.4781    4.2306 C   0  0  0  0  0  0  0  0  0  0  0  0
    4.1656    5.6035    4.3812 N   0  0  0  0  0  0  0  0  0  0  0  0
    3.5906    5.4539    5.6446 O   0  0  0  0  0  0  0  0  0  0  0  0
    3.9950    4.2353    6.1243 C   0  0  0  0  0  0  0  0  0  0  0  0
    3.5336    3.6733    7.3497 C   0  0  0  0  0  0  0  0  0  0  0  0
    3.9022    2.4874    7.9453 C   0  0  0  0  0  0  0  0  0  0  0  0
    3.1352    2.3983    9.1339 C   0  0  0  0  0  0  0  0  0  0  0  0
    3.1902    1.3688   10.1637 C   0  0  0  0  0  0  0  0  0  0  0  0
    4.3960    0.7131   10.4458 C   0  0  0  0  0  0  0  0  0  0  0  0
    5.5065    0.9869    9.7437 F   0  0  0  0  0  0  0  0  0  0  0  0
    4.4953   -0.2240   11.4692 C   0  0  0  0  0  0  0  0  0  0  0  0
    3.3691   -0.5201   12.2229 C   0  0  0  0  0  0  0  0  0  0  0  0
    3.4618   -1.4065   13.2220 F   0  0  0  0  0  0  0  0  0  0  0  0
    2.1530    0.0893   11.9566 C   0  0  0  0  0  0  0  0  0  0  0  0
    2.0689    1.0250   10.9284 C   0  0  0  0  0  0  0  0  0  0  0  0
    0.8693    1.5726   10.6816 F   0  0  0  0  0  0  0  0  0  0  0  0
    2.3319    3.4675    9.2384 N   0  0  0  0  0  0  0  0  0  0  0  0
    2.5847    4.2572    8.1361 O   0  0  0  0  0  0  0  0  0  0  0  0
    4.8085    3.6102    5.2932 N   0  0  0  0  0  0  0  0  0  0  0  0
    7.1133    5.9729    2.4146 C   0  0  0  0  0  0  0  0  0  0  0  0
    8.3935    6.5287    2.3688 C   0  0  0  0  0  0  0  0  0  0  0  0
   12.8157    6.0683    2.5374 H   0  0  0  0  0  0  0  0  0  0  0  0
   11.8399    4.6465    2.3858 H   0  0  0  0  0  0  0  0  0  0  0  0
   10.1423    3.9349    3.7219 H   0  0  0  0  0  0  0  0  0  0  0  0
    7.8931    2.9487    3.7840 H   0  0  0  0  0  0  0  0  0  0  0  0
    5.5487    3.0084    2.8348 H   0  0  0  0  0  0  0  0  0  0  0  0
    4.9324    4.4816    2.0983 H   0  0  0  0  0  0  0  0  0  0  0  0
    4.6402    1.7934    7.5698 H   0  0  0  0  0  0  0  0  0  0  0  0
    5.4429   -0.7055   11.6813 H   0  0  0  0  0  0  0  0  0  0  0  0
    1.2736   -0.1569   12.5457 H   0  0  0  0  0  0  0  0  0  0  0  0
    6.2702    6.5586    2.0530 H   0  0  0  0  0  0  0  0  0  0  0  0
    8.5275    7.5352    1.9770 H   0  0  0  0  0  0  0  0  0  0  0  0
  1  2  1  0  0  0  0
  1 30  1  0  0  0  0
  1 31  1  0  0  0  0
  2  3  2  0  0  0  0
  2  4  1  0  0  0  0
  4  5  2  0  0  0  0
  4 29  1  0  0  0  0
  5  6  1  0  0  0  0
  5 32  1  0  0  0  0
  6  7  2  0  0  0  0
  6 33  1  0  0  0  0
  7  8  1  0  0  0  0
  7 28  1  0  0  0  0
  8  9  1  0  0  0  0
  8 34  1  0  0  0  0
  8 35  1  0  0  0  0
  9 10  2  0  0  0  0
  9 27  1  0  0  0  0
 10 11  1  0  0  0  0
 11 12  1  0  0  0  0
 12 13  1  0  0  0  0
 12 27  2  0  0  0  0
 13 14  2  0  0  0  0
 13 26  1  0  0  0  0
 14 15  1  0  0  0  0
 14 36  1  0  0  0  0
 15 16  1  0  0  0  0
 15 25  2  0  0  0  0
 16 17  2  0  0  0  0
 16 23  1  0  0  0  0
 17 18  1  0  0  0  0
 17 19  1  0  0  0  0
 19 20  2  0  0  0  0
 19 37  1  0  0  0  0
 20 21  1  0  0  0  0
 20 22  1  0  0  0  0
 22 23  2  0  0  0  0
 22 38  1  0  0  0  0
 23 24  1  0  0  0  0
 25 26  1  0  0  0  0
 28 29  2  0  0  0  0
 28 39  1  0  0  0  0
 29 40  1  0  0  0  0
M  END
$$$$
