
 OpenBabel01122422353D

 43 46  0  0  0  0  0  0  0  0999 V2000
    4.9894    1.9281   -0.2325 O   0  0  0  0  0  0  0  0  0  0  0  0
    4.2235    1.0170    0.0895 C   0  0  0  0  0  0  0  0  0  0  0  0
    2.9780    1.1563    0.6707 N   0  0  0  0  0  0  0  0  0  0  0  0
    2.2735    2.3218    0.9064 C   0  0  0  0  0  0  0  0  0  0  0  0
    1.0616    2.2725    1.5031 C   0  0  0  0  0  0  0  0  0  0  0  0
    0.3093    3.4154    1.7540 N   0  0  0  0  0  0  0  0  0  0  0  0
   -0.9604    3.3044    2.4772 C   0  0  0  0  0  0  0  0  0  0  0  0
   -0.7608    3.2472    3.9754 C   0  0  0  0  0  0  0  0  0  0  0  0
   -0.2037    4.3309    4.6751 C   0  0  0  0  0  0  0  0  0  0  0  0
    0.0432    4.2362    6.0437 C   0  0  0  0  0  0  0  0  0  0  0  0
   -0.2835    3.0682    6.7230 C   0  0  0  0  0  0  0  0  0  0  0  0
   -0.0242    2.9714    8.0318 F   0  0  0  0  0  0  0  0  0  0  0  0
   -0.8728    1.9997    6.0613 C   0  0  0  0  0  0  0  0  0  0  0  0
   -1.1074    2.0983    4.6937 C   0  0  0  0  0  0  0  0  0  0  0  0
   -1.6681    1.0586    4.0618 F   0  0  0  0  0  0  0  0  0  0  0  0
    0.7519    4.6816    1.3868 C   0  0  0  0  0  0  0  0  0  0  0  0
    0.1383    5.7333    1.5916 O   0  0  0  0  0  0  0  0  0  0  0  0
    2.0719    4.7352    0.7172 C   0  0  0  0  0  0  0  0  0  0  0  0
    2.7685    3.6225    0.5077 C   0  0  0  0  0  0  0  0  0  0  0  0
    4.6921   -0.3515   -0.2380 C   0  0  0  0  0  0  0  0  0  0  0  0
    6.0693   -0.6285   -0.1959 C   0  0  0  0  0  0  0  0  0  0  0  0
    6.5986   -1.7522   -0.8587 C   0  0  0  0  0  0  0  0  0  0  0  0
    5.7857   -2.5430   -1.6727 C   0  0  0  0  0  0  0  0  0  0  0  0
    4.4425   -2.2226   -1.7547 C   0  0  0  0  0  0  0  0  0  0  0  0
    3.9032   -1.2270   -0.9485 C   0  0  0  0  0  0  0  0  0  0  0  0
    2.4802   -1.2444   -1.2286 C   0  0  0  0  0  0  0  0  0  0  0  0
    1.6249   -0.7560   -0.5136 O   0  0  0  0  0  0  0  0  0  0  0  0
    2.2984   -1.9961   -2.3807 N   0  0  0  0  0  0  0  0  0  0  0  0
    3.5237   -2.6742   -2.7245 N   0  0  0  0  0  0  0  0  0  0  0  0
    2.4525    0.3010    0.8361 H   0  0  0  0  0  0  0  0  0  0  0  0
    0.6238    1.3301    1.8230 H   0  0  0  0  0  0  0  0  0  0  0  0
   -1.4930    2.4203    2.1093 H   0  0  0  0  0  0  0  0  0  0  0  0
   -1.6030    4.1630    2.2436 H   0  0  0  0  0  0  0  0  0  0  0  0
    0.0536    5.2513    4.1522 H   0  0  0  0  0  0  0  0  0  0  0  0
    0.4940    5.0650    6.5839 H   0  0  0  0  0  0  0  0  0  0  0  0
   -1.1365    1.0984    6.6016 H   0  0  0  0  0  0  0  0  0  0  0  0
    2.4291    5.7131    0.4191 H   0  0  0  0  0  0  0  0  0  0  0  0
    3.7314    3.7145    0.0037 H   0  0  0  0  0  0  0  0  0  0  0  0
    6.7476    0.0763    0.2826 H   0  0  0  0  0  0  0  0  0  0  0  0
    7.6723   -1.9413   -0.8174 H   0  0  0  0  0  0  0  0  0  0  0  0
    6.2146   -3.3344   -2.2793 H   0  0  0  0  0  0  0  0  0  0  0  0
    1.9811   -1.3963   -3.1451 H   0  0  0  0  0  0  0  0  0  0  0  0
    3.4308   -3.6919   -2.7356 H   0  0  0  0  0  0  0  0  0  0  0  0
  1  2  2  0  0  0  0
  2  3  1  0  0  0  0
  2 20  1  0  0  0  0
  3  4  1  0  0  0  0
  3 30  1  0  0  0  0
  4  5  2  0  0  0  0
  4 19  1  0  0  0  0
  5  6  1  0  0  0  0
  5 31  1  0  0  0  0
  6  7  1  0  0  0  0
  6 16  1  0  0  0  0
  7  8  1  0  0  0  0
  7 32  1  0  0  0  0
  7 33  1  0  0  0  0
  8  9  2  0  0  0  0
  8 14  1  0  0  0  0
  9 10  1  0  0  0  0
  9 34  1  0  0  0  0
 10 11  2  0  0  0  0
 10 35  1  0  0  0  0
 11 12  1  0  0  0  0
 11 13  1  0  0  0  0
 13 14  2  0  0  0  0
 13 36  1  0  0  0  0
 14 15  1  0  0  0  0
 16 17  2  0  0  0  0
 16 18  1  0  0  0  0
 18 19  2  0  0  0  0
 18 37  1  0  0  0  0
 19 38  1  0  0  0  0
 20 21  2  0  0  0  0
 20 25  1  0  0  0  0
 21 22  1  0  0  0  0
 21 39  1  0  0  0  0
 22 23  2  0  0  0  0
 22 40  1  0  0  0  0
 23 24  1  0  0  0  0
 23 41  1  0  0  0  0
 24 25  2  0  0  0  0
 24 29  1  0  0  0  0
 25 26  1  0  0  0  0
 26 27  2  0  0  0  0
 26 28  1  0  0  0  0
 28 29  1  0  0  0  0
 28 42  1  0  0  0  0
 29 43  1  0  0  0  0
M  END
$$$$
