
 OpenBabel01122422403D

 55 58  0  0  0  0  0  0  0  0999 V2000
    1.1102    0.1708    0.2186 C   0  0  0  0  0  0  0  0  0  0  0  0
    2.2888   -0.1478   -0.6668 C   0  0  0  0  0  0  0  0  0  0  0  0
    2.4290    0.5168   -1.8291 C   0  0  0  0  0  0  0  0  0  0  0  0
    3.5129    0.2213   -2.7235 C   0  0  0  0  0  0  0  0  0  0  0  0
    4.3425   -0.7914   -2.4673 C   0  0  0  0  0  0  0  0  0  0  0  0
    4.1602   -1.5998   -1.2264 C   0  0  0  0  0  0  0  0  0  0  0  0
    4.9171   -2.6454   -1.0682 N   0  0  0  0  0  0  0  0  0  0  0  0
    4.7593   -3.3749    0.0777 C   0  0  0  0  0  0  0  0  0  0  0  0
    5.4332   -4.7361    0.1469 C   0  0  0  0  0  0  0  0  0  0  0  0
    4.4909   -5.8575   -0.1510 N   0  0  0  0  0  0  0  0  0  0  0  0
    4.0308   -5.7342   -1.5704 C   0  0  0  0  0  0  0  0  0  0  0  0
    3.0332   -6.8189   -1.9857 C   0  0  0  0  0  0  0  0  0  0  0  0
    2.0734   -7.1383   -1.0703 N   0  0  0  0  0  0  0  0  0  0  0  0
    3.0377   -7.3416   -3.0965 O   0  0  0  0  0  0  0  0  0  0  0  0
    5.1886   -7.1527    0.0242 C   0  0  0  0  0  0  0  0  0  0  0  0
    5.6281   -7.4466    1.4441 C   0  0  0  0  0  0  0  0  0  0  0  0
    4.7056   -7.4950    2.4933 C   0  0  0  0  0  0  0  0  0  0  0  0
    5.1190   -7.8366    3.7869 C   0  0  0  0  0  0  0  0  0  0  0  0
    6.4589   -8.1542    4.0776 C   0  0  0  0  0  0  0  0  0  0  0  0
    6.8739   -8.5426    5.4472 C   0  0  0  0  0  0  0  0  0  0  0  0
    6.0259   -9.3003    6.2778 C   0  0  0  0  0  0  0  0  0  0  0  0
    6.3809   -9.6213    7.5917 C   0  0  0  0  0  0  0  0  0  0  0  0
    7.6067   -9.2086    8.1014 C   0  0  0  0  0  0  0  0  0  0  0  0
    8.4802   -8.4872    7.2936 C   0  0  0  0  0  0  0  0  0  0  0  0
    8.1165   -8.1576    5.9826 C   0  0  0  0  0  0  0  0  0  0  0  0
    7.3755   -8.0845    3.0152 C   0  0  0  0  0  0  0  0  0  0  0  0
    6.9694   -7.7345    1.7209 C   0  0  0  0  0  0  0  0  0  0  0  0
    4.0184   -2.9597    1.1065 C   0  0  0  0  0  0  0  0  0  0  0  0
    3.1387   -1.7989    0.9262 C   0  0  0  0  0  0  0  0  0  0  0  0
    2.4197   -1.5058    1.8805 O   0  0  0  0  0  0  0  0  0  0  0  0
    3.1901   -1.1750   -0.3176 N   0  0  0  0  0  0  0  0  0  0  0  0
    0.4714    0.9483   -0.2157 H   0  0  0  0  0  0  0  0  0  0  0  0
    1.4315    0.5437    1.1945 H   0  0  0  0  0  0  0  0  0  0  0  0
    0.4800   -0.7169    0.3474 H   0  0  0  0  0  0  0  0  0  0  0  0
    1.7293    1.2887   -2.1308 H   0  0  0  0  0  0  0  0  0  0  0  0
    3.6329    0.8359   -3.6105 H   0  0  0  0  0  0  0  0  0  0  0  0
    5.1665   -1.0528   -3.1198 H   0  0  0  0  0  0  0  0  0  0  0  0
    5.8344   -4.8458    1.1643 H   0  0  0  0  0  0  0  0  0  0  0  0
    6.3031   -4.7630   -0.5239 H   0  0  0  0  0  0  0  0  0  0  0  0
    4.8832   -5.7692   -2.2591 H   0  0  0  0  0  0  0  0  0  0  0  0
    3.4936   -4.7921   -1.7247 H   0  0  0  0  0  0  0  0  0  0  0  0
    2.0936   -6.7397   -0.1408 H   0  0  0  0  0  0  0  0  0  0  0  0
    1.4062   -7.8608   -1.3031 H   0  0  0  0  0  0  0  0  0  0  0  0
    6.0471   -7.2163   -0.6564 H   0  0  0  0  0  0  0  0  0  0  0  0
    4.5248   -7.9840   -0.2444 H   0  0  0  0  0  0  0  0  0  0  0  0
    3.6565   -7.2733    2.3125 H   0  0  0  0  0  0  0  0  0  0  0  0
    4.3698   -7.8489    4.5761 H   0  0  0  0  0  0  0  0  0  0  0  0
    5.0672   -9.6562    5.9065 H   0  0  0  0  0  0  0  0  0  0  0  0
    5.6951  -10.1907    8.2136 H   0  0  0  0  0  0  0  0  0  0  0  0
    7.8803   -9.4486    9.1252 H   0  0  0  0  0  0  0  0  0  0  0  0
    9.4426   -8.1681    7.6851 H   0  0  0  0  0  0  0  0  0  0  0  0
    8.8156   -7.5721    5.3897 H   0  0  0  0  0  0  0  0  0  0  0  0
    8.4244   -8.3250    3.1743 H   0  0  0  0  0  0  0  0  0  0  0  0
    7.7124   -7.7047    0.9268 H   0  0  0  0  0  0  0  0  0  0  0  0
    3.9331   -3.5079    2.0351 H   0  0  0  0  0  0  0  0  0  0  0  0
  1  2  1  0  0  0  0
  1 32  1  0  0  0  0
  1 33  1  0  0  0  0
  1 34  1  0  0  0  0
  2  3  2  0  0  0  0
  2 31  1  0  0  0  0
  3  4  1  0  0  0  0
  3 35  1  0  0  0  0
  4  5  2  0  0  0  0
  4 36  1  0  0  0  0
  5  6  1  0  0  0  0
  5 37  1  0  0  0  0
  6  7  2  0  0  0  0
  6 31  1  0  0  0  0
  7  8  1  0  0  0  0
  8  9  1  0  0  0  0
  8 28  2  0  0  0  0
  9 10  1  0  0  0  0
  9 38  1  0  0  0  0
  9 39  1  0  0  0  0
 10 11  1  0  0  0  0
 10 15  1  0  0  0  0
 11 12  1  0  0  0  0
 11 40  1  0  0  0  0
 11 41  1  0  0  0  0
 12 13  1  0  0  0  0
 12 14  2  0  0  0  0
 13 42  1  0  0  0  0
 13 43  1  0  0  0  0
 15 16  1  0  0  0  0
 15 44  1  0  0  0  0
 15 45  1  0  0  0  0
 16 17  2  0  0  0  0
 16 27  1  0  0  0  0
 17 18  1  0  0  0  0
 17 46  1  0  0  0  0
 18 19  2  0  0  0  0
 18 47  1  0  0  0  0
 19 20  1  0  0  0  0
 19 26  1  0  0  0  0
 20 21  2  0  0  0  0
 20 25  1  0  0  0  0
 21 22  1  0  0  0  0
 21 48  1  0  0  0  0
 22 23  2  0  0  0  0
 22 49  1  0  0  0  0
 23 24  1  0  0  0  0
 23 50  1  0  0  0  0
 24 25  2  0  0  0  0
 24 51  1  0  0  0  0
 25 52  1  0  0  0  0
 26 27  2  0  0  0  0
 26 53  1  0  0  0  0
 27 54  1  0  0  0  0
 28 29  1  0  0  0  0
 28 55  1  0  0  0  0
 29 30  2  0  0  0  0
 29 31  1  0  0  0  0
M  END
$$$$
