
 OpenBabel01122422403D

 43 46  0  0  0  0  0  0  0  0999 V2000
    2.7582   -1.8809   -0.1497 O   0  0  0  0  0  0  0  0  0  0  0  0
    3.1826   -0.8110    0.2601 C   0  0  0  0  0  0  0  0  0  0  0  0
    2.8158   -0.1622    1.4149 N   0  0  0  0  0  0  0  0  0  0  0  0
    2.0369   -0.6371    2.4547 C   0  0  0  0  0  0  0  0  0  0  0  0
    1.0233   -1.5476    2.3240 C   0  0  0  0  0  0  0  0  0  0  0  0
    0.4125   -1.8967    3.5050 C   0  0  0  0  0  0  0  0  0  0  0  0
    0.7863   -1.4288    4.7167 N   0  0  0  0  0  0  0  0  0  0  0  0
    1.8088   -0.5523    4.7320 C   0  0  0  0  0  0  0  0  0  0  0  0
    2.3469   -0.0521    6.0544 C   0  0  0  0  0  0  0  0  0  0  0  0
    3.3286   -0.9636    6.5637 O   0  0  0  0  0  0  0  0  0  0  0  0
    3.8701   -0.6647    7.7854 C   0  0  0  0  0  0  0  0  0  0  0  0
    3.6099    0.4808    8.5407 C   0  0  0  0  0  0  0  0  0  0  0  0
    4.2232    0.6585    9.7848 C   0  0  0  0  0  0  0  0  0  0  0  0
    5.1028   -0.3041   10.2771 C   0  0  0  0  0  0  0  0  0  0  0  0
    5.3717   -1.4450    9.5260 C   0  0  0  0  0  0  0  0  0  0  0  0
    4.7592   -1.6215    8.2834 C   0  0  0  0  0  0  0  0  0  0  0  0
    2.4171   -0.1060    3.6249 N   0  0  0  0  0  0  0  0  0  0  0  0
    4.3716   -0.1563   -0.3710 C   0  0  0  0  0  0  0  0  0  0  0  0
    5.4674   -0.9868   -0.6007 C   0  0  0  0  0  0  0  0  0  0  0  0
    6.6943   -0.3808   -0.7511 C   0  0  0  0  0  0  0  0  0  0  0  0
    6.8867    0.9522   -0.6508 N   0  0  0  0  0  0  0  0  0  0  0  0
    5.8211    1.7469   -0.4599 C   0  0  0  0  0  0  0  0  0  0  0  0
    6.0295    3.1050   -0.2439 C   0  0  0  0  0  0  0  0  0  0  0  0
    4.9699    3.9946   -0.0388 C   0  0  0  0  0  0  0  0  0  0  0  0
    3.6725    3.5250   -0.1037 C   0  0  0  0  0  0  0  0  0  0  0  0
    2.6452    4.3683    0.0510 F   0  0  0  0  0  0  0  0  0  0  0  0
    3.4297    2.1732   -0.2895 C   0  0  0  0  0  0  0  0  0  0  0  0
    4.5046    1.2532   -0.3972 C   0  0  0  0  0  0  0  0  0  0  0  0
    3.4184    0.5755    1.7569 H   0  0  0  0  0  0  0  0  0  0  0  0
    0.7013   -1.9451    1.3721 H   0  0  0  0  0  0  0  0  0  0  0  0
   -0.4242   -2.5882    3.5187 H   0  0  0  0  0  0  0  0  0  0  0  0
    1.5086    0.0433    6.7532 H   0  0  0  0  0  0  0  0  0  0  0  0
    2.8079    0.9276    5.8889 H   0  0  0  0  0  0  0  0  0  0  0  0
    2.9366    1.2583    8.1949 H   0  0  0  0  0  0  0  0  0  0  0  0
    4.0161    1.5521   10.3682 H   0  0  0  0  0  0  0  0  0  0  0  0
    5.5764   -0.1656   11.2462 H   0  0  0  0  0  0  0  0  0  0  0  0
    6.0597   -2.1963    9.9036 H   0  0  0  0  0  0  0  0  0  0  0  0
    4.9749   -2.5124    7.6995 H   0  0  0  0  0  0  0  0  0  0  0  0
    5.3841   -2.0682   -0.5686 H   0  0  0  0  0  0  0  0  0  0  0  0
    7.5991   -0.9661   -0.9006 H   0  0  0  0  0  0  0  0  0  0  0  0
    7.0512    3.4771   -0.1992 H   0  0  0  0  0  0  0  0  0  0  0  0
    5.1565    5.0434    0.1701 H   0  0  0  0  0  0  0  0  0  0  0  0
    2.3948    1.8398   -0.3301 H   0  0  0  0  0  0  0  0  0  0  0  0
  1  2  2  0  0  0  0
  2  3  1  0  0  0  0
  2 18  1  0  0  0  0
  3  4  1  0  0  0  0
  3 29  1  0  0  0  0
  4  5  2  0  0  0  0
  4 17  1  0  0  0  0
  5  6  1  0  0  0  0
  5 30  1  0  0  0  0
  6  7  2  0  0  0  0
  6 31  1  0  0  0  0
  7  8  1  0  0  0  0
  8  9  1  0  0  0  0
  8 17  2  0  0  0  0
  9 10  1  0  0  0  0
  9 32  1  0  0  0  0
  9 33  1  0  0  0  0
 10 11  1  0  0  0  0
 11 12  2  0  0  0  0
 11 16  1  0  0  0  0
 12 13  1  0  0  0  0
 12 34  1  0  0  0  0
 13 14  2  0  0  0  0
 13 35  1  0  0  0  0
 14 15  1  0  0  0  0
 14 36  1  0  0  0  0
 15 16  2  0  0  0  0
 15 37  1  0  0  0  0
 16 38  1  0  0  0  0
 18 19  2  0  0  0  0
 18 28  1  0  0  0  0
 19 20  1  0  0  0  0
 19 39  1  0  0  0  0
 20 21  2  0  0  0  0
 20 40  1  0  0  0  0
 21 22  1  0  0  0  0
 22 23  2  0  0  0  0
 22 28  1  0  0  0  0
 23 24  1  0  0  0  0
 23 41  1  0  0  0  0
 24 25  2  0  0  0  0
 24 42  1  0  0  0  0
 25 26  1  0  0  0  0
 25 27  1  0  0  0  0
 27 28  2  0  0  0  0
 27 43  1  0  0  0  0
M  END
$$$$
