
 OpenBabel01122422403D

 48 51  0  0  0  0  0  0  0  0999 V2000
   12.8486   -7.8926   -1.4762 N   0  0  0  0  0  0  0  0  0  0  0  0
   12.8576   -6.7872   -1.1170 C   0  0  0  0  0  0  0  0  0  0  0  0
   12.8723   -5.4232   -0.6899 C   0  0  0  0  0  0  0  0  0  0  0  0
   12.8257   -4.3876   -1.6331 C   0  0  0  0  0  0  0  0  0  0  0  0
   12.8592   -3.0455   -1.2230 C   0  0  0  0  0  0  0  0  0  0  0  0
   12.9387   -2.7174    0.1413 C   0  0  0  0  0  0  0  0  0  0  0  0
   12.9990   -1.3044    0.6350 C   0  0  0  0  0  0  0  0  0  0  0  0
   13.0692   -1.1046    1.8485 O   0  0  0  0  0  0  0  0  0  0  0  0
   12.9819   -0.2865   -0.2769 N   0  0  0  0  0  0  0  0  0  0  0  0
   13.1299    1.0957    0.1537 C   0  0  0  0  0  0  0  0  0  0  0  0
   13.4625    1.9524   -1.0434 C   0  0  0  0  0  0  0  0  0  0  0  0
   14.5495    1.9959   -1.5535 O   0  0  0  0  0  0  0  0  0  0  0  0
   12.3724    2.4303   -1.6924 O   0  0  0  0  0  0  0  0  0  0  0  0
   12.1026    3.8084   -1.3861 C   0  0  0  0  0  0  0  0  0  0  0  0
   13.0132    5.0309   -2.1079 C   0  0  0  0  0  0  0  0  0  0  0  0
   12.1959    6.0431   -1.2907 C   0  0  0  0  0  0  0  0  0  0  0  0
   10.8233    6.2138   -1.2064 C   0  0  0  0  0  0  0  0  0  0  0  0
   10.2813    6.2215    0.0815 C   0  0  0  0  0  0  0  0  0  0  0  0
   11.1238    6.1476    1.2055 C   0  0  0  0  0  0  0  0  0  0  0  0
   12.4955    6.3500    1.0574 C   0  0  0  0  0  0  0  0  0  0  0  0
   12.9805    6.4874   -0.2232 C   0  0  0  0  0  0  0  0  0  0  0  0
   14.3114    6.5714   -0.7144 C   0  0  0  0  0  0  0  0  0  0  0  0
   15.1357    7.6952   -0.7289 C   0  0  0  0  0  0  0  0  0  0  0  0
   16.2400    7.7082   -1.5804 C   0  0  0  0  0  0  0  0  0  0  0  0
   16.5353    6.5804   -2.3574 C   0  0  0  0  0  0  0  0  0  0  0  0
   15.6294    5.5086   -2.4289 C   0  0  0  0  0  0  0  0  0  0  0  0
   14.4560    5.5655   -1.6726 C   0  0  0  0  0  0  0  0  0  0  0  0
   12.9744   -3.7775    1.0764 C   0  0  0  0  0  0  0  0  0  0  0  0
   13.0527   -3.5801    2.4318 O   0  0  0  0  0  0  0  0  0  0  0  0
   12.9444   -5.1137    0.6727 C   0  0  0  0  0  0  0  0  0  0  0  0
   12.7768   -4.6196   -2.6979 H   0  0  0  0  0  0  0  0  0  0  0  0
   12.8293   -2.2852   -1.9783 H   0  0  0  0  0  0  0  0  0  0  0  0
   12.9463   -0.4451   -1.2580 H   0  0  0  0  0  0  0  0  0  0  0  0
   13.9793    1.1708    0.8410 H   0  0  0  0  0  0  0  0  0  0  0  0
   12.2297    1.4242    0.6971 H   0  0  0  0  0  0  0  0  0  0  0  0
   12.0331    3.8906   -0.3009 H   0  0  0  0  0  0  0  0  0  0  0  0
   11.0828    3.9063   -1.8117 H   0  0  0  0  0  0  0  0  0  0  0  0
   13.4653    4.1742   -2.6052 H   0  0  0  0  0  0  0  0  0  0  0  0
   10.1830    6.0995   -2.0738 H   0  0  0  0  0  0  0  0  0  0  0  0
    9.2060    6.1441    0.2088 H   0  0  0  0  0  0  0  0  0  0  0  0
   10.7126    5.8982    2.1798 H   0  0  0  0  0  0  0  0  0  0  0  0
   13.1751    6.2542    1.9012 H   0  0  0  0  0  0  0  0  0  0  0  0
   14.8382    8.6050   -0.2119 H   0  0  0  0  0  0  0  0  0  0  0  0
   16.8375    8.6129   -1.6827 H   0  0  0  0  0  0  0  0  0  0  0  0
   17.4291    6.5844   -2.9784 H   0  0  0  0  0  0  0  0  0  0  0  0
   15.8184    4.6960   -3.1235 H   0  0  0  0  0  0  0  0  0  0  0  0
   13.0851   -2.6104    2.6004 H   0  0  0  0  0  0  0  0  0  0  0  0
   12.9768   -5.8961    1.4184 H   0  0  0  0  0  0  0  0  0  0  0  0
  1  2  3  0  0  0  0
  2  3  1  0  0  0  0
  3  4  2  0  0  0  0
  3 30  1  0  0  0  0
  4  5  1  0  0  0  0
  4 31  1  0  0  0  0
  5  6  2  0  0  0  0
  5 32  1  0  0  0  0
  6  7  1  0  0  0  0
  6 28  1  0  0  0  0
  7  8  2  0  0  0  0
  7  9  1  0  0  0  0
  9 10  1  0  0  0  0
  9 33  1  0  0  0  0
 10 11  1  0  0  0  0
 10 34  1  0  0  0  0
 10 35  1  0  0  0  0
 11 12  2  0  0  0  0
 11 13  1  0  0  0  0
 13 14  1  0  0  0  0
 14 15  1  0  0  0  0
 14 36  1  0  0  0  0
 14 37  1  0  0  0  0
 15 16  1  0  0  0  0
 15 27  1  0  0  0  0
 15 38  1  0  0  0  0
 16 17  2  0  0  0  0
 16 21  1  0  0  0  0
 17 18  1  0  0  0  0
 17 39  1  0  0  0  0
 18 19  2  0  0  0  0
 18 40  1  0  0  0  0
 19 20  1  0  0  0  0
 19 41  1  0  0  0  0
 20 21  2  0  0  0  0
 20 42  1  0  0  0  0
 21 22  1  0  0  0  0
 22 23  2  0  0  0  0
 22 27  1  0  0  0  0
 23 24  1  0  0  0  0
 23 43  1  0  0  0  0
 24 25  2  0  0  0  0
 24 44  1  0  0  0  0
 25 26  1  0  0  0  0
 25 45  1  0  0  0  0
 26 27  2  0  0  0  0
 26 46  1  0  0  0  0
 28 29  1  0  0  0  0
 28 30  2  0  0  0  0
 29 47  1  0  0  0  0
 30 48  1  0  0  0  0
M  END
$$$$
