
 OpenBabel01122422403D

 40 43  0  0  0  0  0  0  0  0999 V2000
    0.9480   -0.3620    0.1844 O   0  0  0  0  0  0  0  0  0  0  0  0
    2.1565   -0.1420    0.1104 C   0  0  0  0  0  0  0  0  0  0  0  0
    2.8093    0.8181    0.8552 N   0  0  0  0  0  0  0  0  0  0  0  0
    2.1121    1.5734    1.8057 C   0  0  0  0  0  0  0  0  0  0  0  0
    1.2198    0.9726    2.6972 C   0  0  0  0  0  0  0  0  0  0  0  0
    0.5007    1.6673    3.6067 N   0  0  0  0  0  0  0  0  0  0  0  0
    0.6567    3.0074    3.5347 C   0  0  0  0  0  0  0  0  0  0  0  0
    1.5149    3.6376    2.6289 C   0  0  0  0  0  0  0  0  0  0  0  0
    1.5077    5.0985    2.4279 C   0  0  0  0  0  0  0  0  0  0  0  0
    2.6746    5.7960    2.0765 C   0  0  0  0  0  0  0  0  0  0  0  0
    2.6511    7.1758    1.8427 C   0  0  0  0  0  0  0  0  0  0  0  0
    1.4569    7.8849    1.9484 C   0  0  0  0  0  0  0  0  0  0  0  0
    0.2859    7.2184    2.2892 C   0  0  0  0  0  0  0  0  0  0  0  0
    0.3139    5.8418    2.5257 C   0  0  0  0  0  0  0  0  0  0  0  0
    2.3186    2.9076    1.8011 N   0  0  0  0  0  0  0  0  0  0  0  0
    2.9838   -0.8805   -0.8258 C   0  0  0  0  0  0  0  0  0  0  0  0
    2.5169   -1.6763   -1.8491 C   0  0  0  0  0  0  0  0  0  0  0  0
    3.6216   -2.3150   -2.3575 N   0  0  0  0  0  0  0  0  0  0  0  0
    3.6858   -3.3020   -3.3684 C   0  0  0  0  0  0  0  0  0  0  0  0
    2.5584   -3.6525   -4.1186 C   0  0  0  0  0  0  0  0  0  0  0  0
    1.3703   -3.0610   -3.9361 F   0  0  0  0  0  0  0  0  0  0  0  0
    2.6219   -4.6261   -5.1186 C   0  0  0  0  0  0  0  0  0  0  0  0
    3.8217   -5.2761   -5.3827 C   0  0  0  0  0  0  0  0  0  0  0  0
    4.9525   -4.9469   -4.6398 C   0  0  0  0  0  0  0  0  0  0  0  0
    4.8847   -3.9677   -3.6455 C   0  0  0  0  0  0  0  0  0  0  0  0
    6.0061   -3.7249   -2.9551 F   0  0  0  0  0  0  0  0  0  0  0  0
    4.7210   -1.8533   -1.7035 N   0  0  0  0  0  0  0  0  0  0  0  0
    4.3438   -0.9727   -0.7818 N   0  0  0  0  0  0  0  0  0  0  0  0
    3.6288    1.2499    0.4478 H   0  0  0  0  0  0  0  0  0  0  0  0
    1.0696   -0.1017    2.7181 H   0  0  0  0  0  0  0  0  0  0  0  0
    0.0393    3.5725    4.2251 H   0  0  0  0  0  0  0  0  0  0  0  0
    3.6170    5.2604    1.9736 H   0  0  0  0  0  0  0  0  0  0  0  0
    3.5660    7.6936    1.5671 H   0  0  0  0  0  0  0  0  0  0  0  0
    1.4367    8.9542    1.7541 H   0  0  0  0  0  0  0  0  0  0  0  0
   -0.6529    7.7623    2.3584 H   0  0  0  0  0  0  0  0  0  0  0  0
   -0.6314    5.3490    2.7519 H   0  0  0  0  0  0  0  0  0  0  0  0
    1.5067   -1.8582   -2.1781 H   0  0  0  0  0  0  0  0  0  0  0  0
    1.7256   -4.8674   -5.6870 H   0  0  0  0  0  0  0  0  0  0  0  0
    3.8763   -6.0344   -6.1600 H   0  0  0  0  0  0  0  0  0  0  0  0
    5.8982   -5.4506   -4.8248 H   0  0  0  0  0  0  0  0  0  0  0  0
  1  2  2  0  0  0  0
  2  3  1  0  0  0  0
  2 16  1  0  0  0  0
  3  4  1  0  0  0  0
  3 29  1  0  0  0  0
  4  5  2  0  0  0  0
  4 15  1  0  0  0  0
  5  6  1  0  0  0  0
  5 30  1  0  0  0  0
  6  7  2  0  0  0  0
  7  8  1  0  0  0  0
  7 31  1  0  0  0  0
  8  9  1  0  0  0  0
  8 15  2  0  0  0  0
  9 10  2  0  0  0  0
  9 14  1  0  0  0  0
 10 11  1  0  0  0  0
 10 32  1  0  0  0  0
 11 12  2  0  0  0  0
 11 33  1  0  0  0  0
 12 13  1  0  0  0  0
 12 34  1  0  0  0  0
 13 14  2  0  0  0  0
 13 35  1  0  0  0  0
 14 36  1  0  0  0  0
 16 17  2  0  0  0  0
 16 28  1  0  0  0  0
 17 18  1  0  0  0  0
 17 37  1  0  0  0  0
 18 19  1  0  0  0  0
 18 27  1  0  0  0  0
 19 20  2  0  0  0  0
 19 25  1  0  0  0  0
 20 21  1  0  0  0  0
 20 22  1  0  0  0  0
 22 23  2  0  0  0  0
 22 38  1  0  0  0  0
 23 24  1  0  0  0  0
 23 39  1  0  0  0  0
 24 25  2  0  0  0  0
 24 40  1  0  0  0  0
 25 26  1  0  0  0  0
 27 28  2  0  0  0  0
M  END
$$$$
