
 OpenBabel01122422403D

 48 51  0  0  0  0  0  0  0  0999 V2000
    3.0304    2.5568   -1.7316 O   0  0  0  0  0  0  0  0  0  0  0  0
    3.9526    1.8367   -2.0687 C   0  0  0  0  0  0  0  0  0  0  0  0
    5.1077    2.3054   -2.5876 O   0  0  0  0  0  0  0  0  0  0  0  0
    3.8833    0.3555   -2.0213 C   0  0  0  0  0  0  0  0  0  0  0  0
    2.6543   -0.2534   -2.2591 C   0  0  0  0  0  0  0  0  0  0  0  0
    2.5723   -1.6401   -2.2622 C   0  0  0  0  0  0  0  0  0  0  0  0
    3.7176   -2.4178   -2.0371 C   0  0  0  0  0  0  0  0  0  0  0  0
    4.9611   -1.8447   -1.7210 C   0  0  0  0  0  0  0  0  0  0  0  0
    6.1996   -2.6317   -1.3939 C   0  0  0  0  0  0  0  0  0  0  0  0
    7.4430   -2.1108   -1.8398 C   0  0  0  0  0  0  0  0  0  0  0  0
    8.6717   -2.6481   -1.4527 C   0  0  0  0  0  0  0  0  0  0  0  0
    8.7029   -3.7429   -0.6100 C   0  0  0  0  0  0  0  0  0  0  0  0
    7.5069   -4.3260   -0.2023 C   0  0  0  0  0  0  0  0  0  0  0  0
    6.2461   -3.8161   -0.6024 C   0  0  0  0  0  0  0  0  0  0  0  0
    4.9923   -4.5553   -0.1699 C   0  0  0  0  0  0  0  0  0  0  0  0
    5.2137   -5.7823    0.5726 N   0  0  0  0  0  0  0  0  0  0  0  0
    4.7987   -5.9240    1.8746 C   0  0  0  0  0  0  0  0  0  0  0  0
    4.2967   -5.0215    2.5251 O   0  0  0  0  0  0  0  0  0  0  0  0
    4.9833   -7.2716    2.4861 C   0  0  0  0  0  0  0  0  0  0  0  0
    6.1973   -7.9420    2.2481 C   0  0  0  0  0  0  0  0  0  0  0  0
    6.5218   -9.1013    2.9534 C   0  0  0  0  0  0  0  0  0  0  0  0
    5.6644   -9.5715    3.9443 C   0  0  0  0  0  0  0  0  0  0  0  0
    4.4563   -8.9179    4.1905 C   0  0  0  0  0  0  0  0  0  0  0  0
    4.0783   -7.7955    3.4274 C   0  0  0  0  0  0  0  0  0  0  0  0
    2.7612   -7.2919    3.6033 N   0  0  0  0  0  0  0  0  0  0  0  0
    1.9434   -6.6542    2.6945 C   0  0  0  0  0  0  0  0  0  0  0  0
    0.7754   -6.4216    3.3742 C   0  0  0  0  0  0  0  0  0  0  0  0
    0.8538   -6.9772    4.6127 N   0  0  0  0  0  0  0  0  0  0  0  0
    2.0425   -7.5554    4.7263 N   0  0  0  0  0  0  0  0  0  0  0  0
    5.0069   -0.4306   -1.7150 C   0  0  0  0  0  0  0  0  0  0  0  0
    5.6800    1.6314   -2.9977 H   0  0  0  0  0  0  0  0  0  0  0  0
    1.7663    0.3473   -2.4459 H   0  0  0  0  0  0  0  0  0  0  0  0
    1.6153   -2.1244   -2.4451 H   0  0  0  0  0  0  0  0  0  0  0  0
    3.5893   -3.4896   -2.1213 H   0  0  0  0  0  0  0  0  0  0  0  0
    7.4729   -1.2441   -2.4974 H   0  0  0  0  0  0  0  0  0  0  0  0
    9.5985   -2.1930   -1.7914 H   0  0  0  0  0  0  0  0  0  0  0  0
    9.6520   -4.1489   -0.2708 H   0  0  0  0  0  0  0  0  0  0  0  0
    7.5748   -5.1849    0.4605 H   0  0  0  0  0  0  0  0  0  0  0  0
    4.4848   -4.9122   -1.0680 H   0  0  0  0  0  0  0  0  0  0  0  0
    4.3342   -3.8837    0.3928 H   0  0  0  0  0  0  0  0  0  0  0  0
    5.5842   -6.5717    0.0606 H   0  0  0  0  0  0  0  0  0  0  0  0
    6.9279   -7.5506    1.5467 H   0  0  0  0  0  0  0  0  0  0  0  0
    7.4611   -9.6168    2.7594 H   0  0  0  0  0  0  0  0  0  0  0  0
    5.9339  -10.4524    4.5208 H   0  0  0  0  0  0  0  0  0  0  0  0
    3.7996   -9.3218    4.9585 H   0  0  0  0  0  0  0  0  0  0  0  0
    2.2442   -6.4276    1.6857 H   0  0  0  0  0  0  0  0  0  0  0  0
   -0.1115   -5.9103    3.0304 H   0  0  0  0  0  0  0  0  0  0  0  0
    5.9289    0.0738   -1.4300 H   0  0  0  0  0  0  0  0  0  0  0  0
  1  2  2  0  0  0  0
  2  3  1  0  0  0  0
  2  4  1  0  0  0  0
  3 31  1  0  0  0  0
  4  5  2  0  0  0  0
  4 30  1  0  0  0  0
  5  6  1  0  0  0  0
  5 32  1  0  0  0  0
  6  7  2  0  0  0  0
  6 33  1  0  0  0  0
  7  8  1  0  0  0  0
  7 34  1  0  0  0  0
  8  9  1  0  0  0  0
  8 30  2  0  0  0  0
  9 10  2  0  0  0  0
  9 14  1  0  0  0  0
 10 11  1  0  0  0  0
 10 35  1  0  0  0  0
 11 12  2  0  0  0  0
 11 36  1  0  0  0  0
 12 13  1  0  0  0  0
 12 37  1  0  0  0  0
 13 14  2  0  0  0  0
 13 38  1  0  0  0  0
 14 15  1  0  0  0  0
 15 16  1  0  0  0  0
 15 39  1  0  0  0  0
 15 40  1  0  0  0  0
 16 17  1  0  0  0  0
 16 41  1  0  0  0  0
 17 18  2  0  0  0  0
 17 19  1  0  0  0  0
 19 20  2  0  0  0  0
 19 24  1  0  0  0  0
 20 21  1  0  0  0  0
 20 42  1  0  0  0  0
 21 22  2  0  0  0  0
 21 43  1  0  0  0  0
 22 23  1  0  0  0  0
 22 44  1  0  0  0  0
 23 24  2  0  0  0  0
 23 45  1  0  0  0  0
 24 25  1  0  0  0  0
 25 26  1  0  0  0  0
 25 29  1  0  0  0  0
 26 27  2  0  0  0  0
 26 46  1  0  0  0  0
 27 28  1  0  0  0  0
 27 47  1  0  0  0  0
 28 29  2  0  0  0  0
 30 48  1  0  0  0  0
M  END
$$$$
