
 OpenBabel01122422403D

 51 54  0  0  0  0  0  0  0  0999 V2000
    5.8766    7.3954   -3.1256 C   0  0  0  0  0  0  0  0  0  0  0  0
    6.4657    6.1831   -2.6738 O   0  0  0  0  0  0  0  0  0  0  0  0
    6.3632    6.0496   -1.2561 C   0  0  0  0  0  0  0  0  0  0  0  0
    6.9666    4.7384   -0.8368 C   0  0  0  0  0  0  0  0  0  0  0  0
    8.3111    4.4447   -1.1024 C   0  0  0  0  0  0  0  0  0  0  0  0
    8.8681    3.2268   -0.6948 C   0  0  0  0  0  0  0  0  0  0  0  0
    8.0902    2.2718   -0.0228 C   0  0  0  0  0  0  0  0  0  0  0  0
    8.6849    0.9515    0.3952 C   0  0  0  0  0  0  0  0  0  0  0  0
    9.2511    1.0081    1.7214 N   0  0  0  0  0  0  0  0  0  0  0  0
   10.5868    1.2785    1.9175 C   0  0  0  0  0  0  0  0  0  0  0  0
   11.3661    1.4540    0.9865 O   0  0  0  0  0  0  0  0  0  0  0  0
   10.9958    1.3503    3.3215 C   0  0  0  0  0  0  0  0  0  0  0  0
   10.5026    0.5597    4.3513 C   0  0  0  0  0  0  0  0  0  0  0  0
   11.1952    0.8494    5.4993 N   0  0  0  0  0  0  0  0  0  0  0  0
   12.1159    1.8310    5.2437 C   0  0  0  0  0  0  0  0  0  0  0  0
   12.0049    2.1778    3.9136 C   0  0  0  0  0  0  0  0  0  0  0  0
   12.7538    3.2143    3.2221 C   0  0  0  0  0  0  0  0  0  0  0  0
   12.3191    4.0195    2.2006 C   0  0  0  0  0  0  0  0  0  0  0  0
   13.3951    4.7670    1.7874 N   0  0  0  0  0  0  0  0  0  0  0  0
   13.4473    5.6553    0.6774 C   0  0  0  0  0  0  0  0  0  0  0  0
   12.3121    5.8867   -0.1156 C   0  0  0  0  0  0  0  0  0  0  0  0
   12.3786    6.7641   -1.2007 C   0  0  0  0  0  0  0  0  0  0  0  0
   13.5767    7.4069   -1.5043 C   0  0  0  0  0  0  0  0  0  0  0  0
   14.7111    7.1728   -0.7281 C   0  0  0  0  0  0  0  0  0  0  0  0
   14.6502    6.3004    0.3612 C   0  0  0  0  0  0  0  0  0  0  0  0
   14.4738    4.5679    2.5978 N   0  0  0  0  0  0  0  0  0  0  0  0
   14.0762    3.6177    3.4513 C   0  0  0  0  0  0  0  0  0  0  0  0
    6.7507    2.5716    0.2529 C   0  0  0  0  0  0  0  0  0  0  0  0
    6.2056    3.7891   -0.1533 C   0  0  0  0  0  0  0  0  0  0  0  0
    4.9181    4.0372    0.1288 F   0  0  0  0  0  0  0  0  0  0  0  0
    5.9513    7.4308   -4.2158 H   0  0  0  0  0  0  0  0  0  0  0  0
    6.4102    8.2557   -2.7105 H   0  0  0  0  0  0  0  0  0  0  0  0
    4.8187    7.4389   -2.8481 H   0  0  0  0  0  0  0  0  0  0  0  0
    5.3093    6.1099   -0.9614 H   0  0  0  0  0  0  0  0  0  0  0  0
    6.9045    6.8682   -0.7664 H   0  0  0  0  0  0  0  0  0  0  0  0
    8.9263    5.1619   -1.6426 H   0  0  0  0  0  0  0  0  0  0  0  0
    9.9152    3.0195   -0.9163 H   0  0  0  0  0  0  0  0  0  0  0  0
    9.4429    0.6329   -0.3302 H   0  0  0  0  0  0  0  0  0  0  0  0
    7.9108    0.1764    0.4044 H   0  0  0  0  0  0  0  0  0  0  0  0
    8.6329    1.0266    2.5189 H   0  0  0  0  0  0  0  0  0  0  0  0
    9.7509   -0.2189    4.3538 H   0  0  0  0  0  0  0  0  0  0  0  0
   11.0595    0.3979    6.3958 H   0  0  0  0  0  0  0  0  0  0  0  0
   12.7533    2.2075    6.0327 H   0  0  0  0  0  0  0  0  0  0  0  0
   11.3624    4.0663    1.7074 H   0  0  0  0  0  0  0  0  0  0  0  0
   11.3609    5.4030    0.0809 H   0  0  0  0  0  0  0  0  0  0  0  0
   11.4963    6.9419   -1.8087 H   0  0  0  0  0  0  0  0  0  0  0  0
   13.6278    8.0881   -2.3493 H   0  0  0  0  0  0  0  0  0  0  0  0
   15.6477    7.6674   -0.9707 H   0  0  0  0  0  0  0  0  0  0  0  0
   15.5494    6.1253    0.9488 H   0  0  0  0  0  0  0  0  0  0  0  0
   14.7787    3.2536    4.1893 H   0  0  0  0  0  0  0  0  0  0  0  0
    6.1132    1.8625    0.7722 H   0  0  0  0  0  0  0  0  0  0  0  0
  1  2  1  0  0  0  0
  1 31  1  0  0  0  0
  1 32  1  0  0  0  0
  1 33  1  0  0  0  0
  2  3  1  0  0  0  0
  3  4  1  0  0  0  0
  3 34  1  0  0  0  0
  3 35  1  0  0  0  0
  4  5  2  0  0  0  0
  4 29  1  0  0  0  0
  5  6  1  0  0  0  0
  5 36  1  0  0  0  0
  6  7  2  0  0  0  0
  6 37  1  0  0  0  0
  7  8  1  0  0  0  0
  7 28  1  0  0  0  0
  8  9  1  0  0  0  0
  8 38  1  0  0  0  0
  8 39  1  0  0  0  0
  9 10  1  0  0  0  0
  9 40  1  0  0  0  0
 10 11  2  0  0  0  0
 10 12  1  0  0  0  0
 12 13  2  0  0  0  0
 12 16  1  0  0  0  0
 13 14  1  0  0  0  0
 13 41  1  0  0  0  0
 14 15  1  0  0  0  0
 14 42  1  0  0  0  0
 15 16  2  0  0  0  0
 15 43  1  0  0  0  0
 16 17  1  0  0  0  0
 17 18  2  0  0  0  0
 17 27  1  0  0  0  0
 18 19  1  0  0  0  0
 18 44  1  0  0  0  0
 19 20  1  0  0  0  0
 19 26  1  0  0  0  0
 20 21  2  0  0  0  0
 20 25  1  0  0  0  0
 21 22  1  0  0  0  0
 21 45  1  0  0  0  0
 22 23  2  0  0  0  0
 22 46  1  0  0  0  0
 23 24  1  0  0  0  0
 23 47  1  0  0  0  0
 24 25  2  0  0  0  0
 24 48  1  0  0  0  0
 25 49  1  0  0  0  0
 26 27  2  0  0  0  0
 27 50  1  0  0  0  0
 28 29  2  0  0  0  0
 28 51  1  0  0  0  0
 29 30  1  0  0  0  0
M  END
$$$$
