
 OpenBabel01122422403D

 49 52  0  0  0  0  0  0  0  0999 V2000
    0.9968    0.2011    0.0054 O   0  0  0  0  0  0  0  0  0  0  0  0
    2.2181    0.0650    0.0312 C   0  0  0  0  0  0  0  0  0  0  0  0
    2.8455   -0.9452    0.6832 N   0  0  0  0  0  0  0  0  0  0  0  0
    2.1640   -1.9302    1.4938 C   0  0  0  0  0  0  0  0  0  0  0  0
    2.8989   -3.2434    1.4586 C   0  0  0  0  0  0  0  0  0  0  0  0
    3.6561   -3.6853    0.4374 C   0  0  0  0  0  0  0  0  0  0  0  0
    4.3048   -4.9948    0.4785 C   0  0  0  0  0  0  0  0  0  0  0  0
    5.0720   -5.4676   -0.5894 C   0  0  0  0  0  0  0  0  0  0  0  0
    5.6601   -6.7333   -0.5200 C   0  0  0  0  0  0  0  0  0  0  0  0
    5.4847   -7.5283    0.6142 C   0  0  0  0  0  0  0  0  0  0  0  0
    4.7224   -7.0600    1.6857 C   0  0  0  0  0  0  0  0  0  0  0  0
    4.1364   -5.7974    1.6114 C   0  0  0  0  0  0  0  0  0  0  0  0
    3.3629   -5.3206    2.6749 N   0  0  0  0  0  0  0  0  0  0  0  0
    2.7346   -4.1025    2.6744 C   0  0  0  0  0  0  0  0  0  0  0  0
    2.0656   -3.7413    3.6384 O   0  0  0  0  0  0  0  0  0  0  0  0
    3.0061    0.9548   -0.6364 N   0  0  0  0  0  0  0  0  0  0  0  0
    4.3926    0.9313   -0.8335 C   0  0  0  0  0  0  0  0  0  0  0  0
    4.9625    1.9535   -1.5915 C   0  0  0  0  0  0  0  0  0  0  0  0
    6.3403    1.9292   -1.8555 C   0  0  0  0  0  0  0  0  0  0  0  0
    7.0007    3.0236   -2.6635 C   0  0  0  0  0  0  0  0  0  0  0  0
    7.5093    4.1744   -1.8251 C   0  0  0  0  0  0  0  0  0  0  0  0
    8.8136    4.1601   -1.3063 C   0  0  0  0  0  0  0  0  0  0  0  0
    9.2677    5.2081   -0.5019 C   0  0  0  0  0  0  0  0  0  0  0  0
    8.4268    6.2778   -0.2082 C   0  0  0  0  0  0  0  0  0  0  0  0
    7.1346    6.3091   -0.7245 C   0  0  0  0  0  0  0  0  0  0  0  0
    6.6762    5.2626   -1.5280 C   0  0  0  0  0  0  0  0  0  0  0  0
    7.0925    0.8750   -1.3390 C   0  0  0  0  0  0  0  0  0  0  0  0
    6.4492   -0.0901   -0.5827 C   0  0  0  0  0  0  0  0  0  0  0  0
    5.1265   -0.0770   -0.3155 N   0  0  0  0  0  0  0  0  0  0  0  0
    3.8454   -0.8100    0.8104 H   0  0  0  0  0  0  0  0  0  0  0  0
    1.1387   -2.0668    1.1361 H   0  0  0  0  0  0  0  0  0  0  0  0
    2.1215   -1.5129    2.5045 H   0  0  0  0  0  0  0  0  0  0  0  0
    3.7837   -3.0877   -0.4617 H   0  0  0  0  0  0  0  0  0  0  0  0
    5.2118   -4.8627   -1.4820 H   0  0  0  0  0  0  0  0  0  0  0  0
    6.2514   -7.1028   -1.3545 H   0  0  0  0  0  0  0  0  0  0  0  0
    5.9398   -8.5141    0.6611 H   0  0  0  0  0  0  0  0  0  0  0  0
    4.5886   -7.6886    2.5616 H   0  0  0  0  0  0  0  0  0  0  0  0
    3.2310   -5.8828    3.5037 H   0  0  0  0  0  0  0  0  0  0  0  0
    2.4743    1.6872   -1.0816 H   0  0  0  0  0  0  0  0  0  0  0  0
    4.3486    2.7602   -1.9794 H   0  0  0  0  0  0  0  0  0  0  0  0
    6.3002    3.3999   -3.4210 H   0  0  0  0  0  0  0  0  0  0  0  0
    7.8312    2.5987   -3.2435 H   0  0  0  0  0  0  0  0  0  0  0  0
    9.4848    3.3352   -1.5272 H   0  0  0  0  0  0  0  0  0  0  0  0
   10.2781    5.1840   -0.0996 H   0  0  0  0  0  0  0  0  0  0  0  0
    8.7795    7.0882    0.4279 H   0  0  0  0  0  0  0  0  0  0  0  0
    6.4807    7.1471   -0.4988 H   0  0  0  0  0  0  0  0  0  0  0  0
    5.6626    5.3037   -1.9189 H   0  0  0  0  0  0  0  0  0  0  0  0
    8.1597    0.7990   -1.5171 H   0  0  0  0  0  0  0  0  0  0  0  0
    6.9968   -0.9294   -0.1638 H   0  0  0  0  0  0  0  0  0  0  0  0
  1  2  2  0  0  0  0
  2  3  1  0  0  0  0
  2 16  1  0  0  0  0
  3  4  1  0  0  0  0
  3 30  1  0  0  0  0
  4  5  1  0  0  0  0
  4 31  1  0  0  0  0
  4 32  1  0  0  0  0
  5  6  2  0  0  0  0
  5 14  1  0  0  0  0
  6  7  1  0  0  0  0
  6 33  1  0  0  0  0
  7  8  2  0  0  0  0
  7 12  1  0  0  0  0
  8  9  1  0  0  0  0
  8 34  1  0  0  0  0
  9 10  2  0  0  0  0
  9 35  1  0  0  0  0
 10 11  1  0  0  0  0
 10 36  1  0  0  0  0
 11 12  2  0  0  0  0
 11 37  1  0  0  0  0
 12 13  1  0  0  0  0
 13 14  1  0  0  0  0
 13 38  1  0  0  0  0
 14 15  2  0  0  0  0
 16 17  1  0  0  0  0
 16 39  1  0  0  0  0
 17 18  2  0  0  0  0
 17 29  1  0  0  0  0
 18 19  1  0  0  0  0
 18 40  1  0  0  0  0
 19 20  1  0  0  0  0
 19 27  2  0  0  0  0
 20 21  1  0  0  0  0
 20 41  1  0  0  0  0
 20 42  1  0  0  0  0
 21 22  2  0  0  0  0
 21 26  1  0  0  0  0
 22 23  1  0  0  0  0
 22 43  1  0  0  0  0
 23 24  2  0  0  0  0
 23 44  1  0  0  0  0
 24 25  1  0  0  0  0
 24 45  1  0  0  0  0
 25 26  2  0  0  0  0
 25 46  1  0  0  0  0
 26 47  1  0  0  0  0
 27 28  1  0  0  0  0
 27 48  1  0  0  0  0
 28 29  2  0  0  0  0
 28 49  1  0  0  0  0
M  END
$$$$
