
 OpenBabel01122422403D

 42 45  0  0  0  0  0  0  0  0999 V2000
    0.9231    0.0990    0.3519 O   0  0  0  0  0  0  0  0  0  0  0  0
    2.1160    0.0812    0.0711 C   0  0  0  0  0  0  0  0  0  0  0  0
    2.7293    0.8589   -0.8927 N   0  0  0  0  0  0  0  0  0  0  0  0
    2.1220    1.8248   -1.7112 C   0  0  0  0  0  0  0  0  0  0  0  0
    0.8592    2.3525   -1.4681 C   0  0  0  0  0  0  0  0  0  0  0  0
    0.2841    3.2595   -2.3657 C   0  0  0  0  0  0  0  0  0  0  0  0
    0.9531    3.6479   -3.5302 C   0  0  0  0  0  0  0  0  0  0  0  0
    0.3419    4.5069   -4.4811 N   0  0  0  0  0  0  0  0  0  0  0  0
    0.7436    4.7432   -5.7887 C   0  0  0  0  0  0  0  0  0  0  0  0
   -0.1006    5.5986   -6.3741 C   0  0  0  0  0  0  0  0  0  0  0  0
   -1.0636    5.9475   -5.4729 N   0  0  0  0  0  0  0  0  0  0  0  0
   -0.8413    5.2843   -4.2520 C   0  0  0  0  0  0  0  0  0  0  0  0
   -1.5414    5.4194   -3.2633 O   0  0  0  0  0  0  0  0  0  0  0  0
    2.2439    3.1440   -3.7442 C   0  0  0  0  0  0  0  0  0  0  0  0
    2.8310    2.2576   -2.8335 C   0  0  0  0  0  0  0  0  0  0  0  0
    3.0159   -0.8523    0.7191 C   0  0  0  0  0  0  0  0  0  0  0  0
    4.3930   -0.9683    0.7056 C   0  0  0  0  0  0  0  0  0  0  0  0
    4.7405   -2.0763    1.5101 C   0  0  0  0  0  0  0  0  0  0  0  0
    3.5786   -2.6279    2.0236 C   0  0  0  0  0  0  0  0  0  0  0  0
    3.3810   -3.7768    2.9195 C   0  0  0  0  0  0  0  0  0  0  0  0
    4.4850   -4.5365    3.3357 C   0  0  0  0  0  0  0  0  0  0  0  0
    4.3317   -5.6187    4.2064 C   0  0  0  0  0  0  0  0  0  0  0  0
    3.0670   -5.9639    4.6761 C   0  0  0  0  0  0  0  0  0  0  0  0
    1.9555   -5.2314    4.2671 C   0  0  0  0  0  0  0  0  0  0  0  0
    2.1159   -4.1522    3.3977 C   0  0  0  0  0  0  0  0  0  0  0  0
    1.0162   -3.4751    3.0291 F   0  0  0  0  0  0  0  0  0  0  0  0
    2.5457   -1.8536    1.5404 N   0  0  0  0  0  0  0  0  0  0  0  0
    3.6778    0.6115   -1.1298 H   0  0  0  0  0  0  0  0  0  0  0  0
    0.2846    2.0834   -0.5874 H   0  0  0  0  0  0  0  0  0  0  0  0
   -0.7158    3.6117   -2.1345 H   0  0  0  0  0  0  0  0  0  0  0  0
    1.5960    4.2587   -6.2398 H   0  0  0  0  0  0  0  0  0  0  0  0
   -0.0926    5.9834   -7.3820 H   0  0  0  0  0  0  0  0  0  0  0  0
   -1.8374    6.5788   -5.6127 H   0  0  0  0  0  0  0  0  0  0  0  0
    2.8293    3.4365   -4.6102 H   0  0  0  0  0  0  0  0  0  0  0  0
    3.8337    1.8899   -3.0369 H   0  0  0  0  0  0  0  0  0  0  0  0
    5.0928   -0.3277    0.1863 H   0  0  0  0  0  0  0  0  0  0  0  0
    5.7476   -2.4226    1.6975 H   0  0  0  0  0  0  0  0  0  0  0  0
    5.4871   -4.2978    2.9885 H   0  0  0  0  0  0  0  0  0  0  0  0
    5.2044   -6.1877    4.5180 H   0  0  0  0  0  0  0  0  0  0  0  0
    2.9497   -6.8020    5.3581 H   0  0  0  0  0  0  0  0  0  0  0  0
    0.9627   -5.4899    4.6211 H   0  0  0  0  0  0  0  0  0  0  0  0
    1.5623   -1.9967    1.7469 H   0  0  0  0  0  0  0  0  0  0  0  0
  1  2  2  0  0  0  0
  2  3  1  0  0  0  0
  2 16  1  0  0  0  0
  3  4  1  0  0  0  0
  3 28  1  0  0  0  0
  4  5  2  0  0  0  0
  4 15  1  0  0  0  0
  5  6  1  0  0  0  0
  5 29  1  0  0  0  0
  6  7  2  0  0  0  0
  6 30  1  0  0  0  0
  7  8  1  0  0  0  0
  7 14  1  0  0  0  0
  8  9  1  0  0  0  0
  8 12  1  0  0  0  0
  9 10  2  0  0  0  0
  9 31  1  0  0  0  0
 10 11  1  0  0  0  0
 10 32  1  0  0  0  0
 11 12  1  0  0  0  0
 11 33  1  0  0  0  0
 12 13  2  0  0  0  0
 14 15  2  0  0  0  0
 14 34  1  0  0  0  0
 15 35  1  0  0  0  0
 16 17  2  0  0  0  0
 16 27  1  0  0  0  0
 17 18  1  0  0  0  0
 17 36  1  0  0  0  0
 18 19  2  0  0  0  0
 18 37  1  0  0  0  0
 19 20  1  0  0  0  0
 19 27  1  0  0  0  0
 20 21  2  0  0  0  0
 20 25  1  0  0  0  0
 21 22  1  0  0  0  0
 21 38  1  0  0  0  0
 22 23  2  0  0  0  0
 22 39  1  0  0  0  0
 23 24  1  0  0  0  0
 23 40  1  0  0  0  0
 24 25  2  0  0  0  0
 24 41  1  0  0  0  0
 25 26  1  0  0  0  0
 27 42  1  0  0  0  0
M  END
$$$$
