
 OpenBabel01122422403D

 43 46  0  0  0  0  0  0  0  0999 V2000
    0.4145    0.7543    0.2612 N   0  0  0  0  0  0  0  0  0  0  0  0
    1.4385    0.5257   -0.6009 C   0  0  0  0  0  0  0  0  0  0  0  0
    1.6524   -0.5801   -1.2777 N   0  0  0  0  0  0  0  0  0  0  0  0
    2.6609   -0.3060   -2.1625 N   0  0  0  0  0  0  0  0  0  0  0  0
    3.0698    0.9486   -2.0505 N   0  0  0  0  0  0  0  0  0  0  0  0
    2.3902    1.4697   -0.9996 N   0  0  0  0  0  0  0  0  0  0  0  0
    2.6953    2.7502   -0.4746 C   0  0  0  0  0  0  0  0  0  0  0  0
    2.3623    3.0782    0.8426 C   0  0  0  0  0  0  0  0  0  0  0  0
    2.6899    4.3333    1.3450 C   0  0  0  0  0  0  0  0  0  0  0  0
    3.3453    5.2636    0.5372 C   0  0  0  0  0  0  0  0  0  0  0  0
    3.7250    4.9590   -0.7819 C   0  0  0  0  0  0  0  0  0  0  0  0
    4.4811    5.9314   -1.6037 C   0  0  0  0  0  0  0  0  0  0  0  0
    5.4906    6.7409   -1.0526 C   0  0  0  0  0  0  0  0  0  0  0  0
    5.7873    6.6621    0.2544 F   0  0  0  0  0  0  0  0  0  0  0  0
    6.2461    7.6246   -1.8229 C   0  0  0  0  0  0  0  0  0  0  0  0
    6.0293    7.7111   -3.1925 C   0  0  0  0  0  0  0  0  0  0  0  0
    6.8725    8.5434   -3.8760 O   0  0  0  0  0  0  0  0  0  0  0  0
    7.0283    8.2334   -5.2628 C   0  0  0  0  0  0  0  0  0  0  0  0
    8.3205    8.8146   -5.7743 C   0  0  0  0  0  0  0  0  0  0  0  0
    9.3477    7.9690   -6.2146 C   0  0  0  0  0  0  0  0  0  0  0  0
   10.5289    8.4991   -6.7317 C   0  0  0  0  0  0  0  0  0  0  0  0
   10.6968    9.8795   -6.8084 C   0  0  0  0  0  0  0  0  0  0  0  0
    9.6872   10.7319   -6.3587 C   0  0  0  0  0  0  0  0  0  0  0  0
    8.5043   10.2025   -5.8410 C   0  0  0  0  0  0  0  0  0  0  0  0
    5.0038    6.9645   -3.7656 C   0  0  0  0  0  0  0  0  0  0  0  0
    4.2541    6.0899   -2.9765 C   0  0  0  0  0  0  0  0  0  0  0  0
    3.2877    5.3881   -3.5943 F   0  0  0  0  0  0  0  0  0  0  0  0
    3.3874    3.6809   -1.2714 C   0  0  0  0  0  0  0  0  0  0  0  0
   -0.3179    0.0480    0.2372 H   0  0  0  0  0  0  0  0  0  0  0  0
    0.0211    1.6923    0.2982 H   0  0  0  0  0  0  0  0  0  0  0  0
    1.9074    2.3602    1.5202 H   0  0  0  0  0  0  0  0  0  0  0  0
    2.4601    4.5852    2.3775 H   0  0  0  0  0  0  0  0  0  0  0  0
    3.5801    6.2362    0.9673 H   0  0  0  0  0  0  0  0  0  0  0  0
    7.0230    8.2152   -1.3462 H   0  0  0  0  0  0  0  0  0  0  0  0
    6.1925    8.6571   -5.8324 H   0  0  0  0  0  0  0  0  0  0  0  0
    7.0482    7.1471   -5.4201 H   0  0  0  0  0  0  0  0  0  0  0  0
    9.2339    6.8870   -6.1623 H   0  0  0  0  0  0  0  0  0  0  0  0
   11.3178    7.8345   -7.0756 H   0  0  0  0  0  0  0  0  0  0  0  0
   11.6145   10.2936   -7.2141 H   0  0  0  0  0  0  0  0  0  0  0  0
    9.8221   11.8085   -6.4138 H   0  0  0  0  0  0  0  0  0  0  0  0
    7.7245   10.8757   -5.4945 H   0  0  0  0  0  0  0  0  0  0  0  0
    4.7619    7.0270   -4.8206 H   0  0  0  0  0  0  0  0  0  0  0  0
    3.6619    3.4113   -2.2919 H   0  0  0  0  0  0  0  0  0  0  0  0
  1  2  1  0  0  0  0
  1 29  1  0  0  0  0
  1 30  1  0  0  0  0
  2  3  2  0  0  0  0
  2  6  1  0  0  0  0
  3  4  1  0  0  0  0
  4  5  2  0  0  0  0
  5  6  1  0  0  0  0
  6  7  1  0  0  0  0
  7  8  2  0  0  0  0
  7 28  1  0  0  0  0
  8  9  1  0  0  0  0
  8 31  1  0  0  0  0
  9 10  2  0  0  0  0
  9 32  1  0  0  0  0
 10 11  1  0  0  0  0
 10 33  1  0  0  0  0
 11 12  1  0  0  0  0
 11 28  2  0  0  0  0
 12 13  2  0  0  0  0
 12 26  1  0  0  0  0
 13 14  1  0  0  0  0
 13 15  1  0  0  0  0
 15 16  2  0  0  0  0
 15 34  1  0  0  0  0
 16 17  1  0  0  0  0
 16 25  1  0  0  0  0
 17 18  1  0  0  0  0
 18 19  1  0  0  0  0
 18 35  1  0  0  0  0
 18 36  1  0  0  0  0
 19 20  2  0  0  0  0
 19 24  1  0  0  0  0
 20 21  1  0  0  0  0
 20 37  1  0  0  0  0
 21 22  2  0  0  0  0
 21 38  1  0  0  0  0
 22 23  1  0  0  0  0
 22 39  1  0  0  0  0
 23 24  2  0  0  0  0
 23 40  1  0  0  0  0
 24 41  1  0  0  0  0
 25 26  2  0  0  0  0
 25 42  1  0  0  0  0
 26 27  1  0  0  0  0
 28 43  1  0  0  0  0
M  END
$$$$
