
 OpenBabel01122422403D

 44 47  0  0  0  0  0  0  0  0999 V2000
    1.0133   -0.2018   -0.1268 O   0  0  0  0  0  0  0  0  0  0  0  0
    2.2139    0.0422   -0.1049 C   0  0  0  0  0  0  0  0  0  0  0  0
    2.8871    0.6380   -1.1504 N   0  0  0  0  0  0  0  0  0  0  0  0
    2.2072    0.8949   -2.3964 C   0  0  0  0  0  0  0  0  0  0  0  0
    2.8482    2.0398   -3.0893 C   0  0  0  0  0  0  0  0  0  0  0  0
    2.3837    3.2926   -3.4268 C   0  0  0  0  0  0  0  0  0  0  0  0
    3.4344    3.9357   -4.1185 C   0  0  0  0  0  0  0  0  0  0  0  0
    4.4967    3.0522   -4.1517 C   0  0  0  0  0  0  0  0  0  0  0  0
    5.8594    3.1338   -4.6772 C   0  0  0  0  0  0  0  0  0  0  0  0
    6.7392    2.0462   -4.6155 C   0  0  0  0  0  0  0  0  0  0  0  0
    8.0463    2.1749   -5.0811 C   0  0  0  0  0  0  0  0  0  0  0  0
    8.8796    1.1292   -4.9997 F   0  0  0  0  0  0  0  0  0  0  0  0
    8.5070    3.3690   -5.6212 C   0  0  0  0  0  0  0  0  0  0  0  0
    7.6419    4.4537   -5.7101 C   0  0  0  0  0  0  0  0  0  0  0  0
    6.3283    4.3343   -5.2431 C   0  0  0  0  0  0  0  0  0  0  0  0
    4.1363    1.8873   -3.5233 O   0  0  0  0  0  0  0  0  0  0  0  0
    3.0276   -0.3401    1.0804 C   0  0  0  0  0  0  0  0  0  0  0  0
    2.6201   -1.4371    1.8436 C   0  0  0  0  0  0  0  0  0  0  0  0
    3.3676   -1.8389    2.9579 C   0  0  0  0  0  0  0  0  0  0  0  0
    4.5154   -1.1366    3.3507 C   0  0  0  0  0  0  0  0  0  0  0  0
    5.2739   -1.5327    4.4831 N   0  0  0  0  0  0  0  0  0  0  0  0
    6.2067   -0.7800    5.1847 C   0  0  0  0  0  0  0  0  0  0  0  0
    6.7157   -1.5069    6.1864 C   0  0  0  0  0  0  0  0  0  0  0  0
    6.1442   -2.7456    6.1611 N   0  0  0  0  0  0  0  0  0  0  0  0
    5.2188   -2.8266    5.1016 C   0  0  0  0  0  0  0  0  0  0  0  0
    4.5775   -3.8246    4.8217 O   0  0  0  0  0  0  0  0  0  0  0  0
    4.8903   -0.0128    2.5943 C   0  0  0  0  0  0  0  0  0  0  0  0
    4.1612    0.3799    1.4638 C   0  0  0  0  0  0  0  0  0  0  0  0
    3.8976    0.5778   -1.1878 H   0  0  0  0  0  0  0  0  0  0  0  0
    1.1510    1.1126   -2.2049 H   0  0  0  0  0  0  0  0  0  0  0  0
    2.2617   -0.0106   -3.0090 H   0  0  0  0  0  0  0  0  0  0  0  0
    1.4014    3.6866   -3.2057 H   0  0  0  0  0  0  0  0  0  0  0  0
    3.4177    4.9323   -4.5355 H   0  0  0  0  0  0  0  0  0  0  0  0
    6.4268    1.0919   -4.2023 H   0  0  0  0  0  0  0  0  0  0  0  0
    9.5334    3.4458   -5.9661 H   0  0  0  0  0  0  0  0  0  0  0  0
    7.9855    5.3939   -6.1344 H   0  0  0  0  0  0  0  0  0  0  0  0
    5.6763    5.2014   -5.3219 H   0  0  0  0  0  0  0  0  0  0  0  0
    1.7195   -1.9874    1.5782 H   0  0  0  0  0  0  0  0  0  0  0  0
    3.0044   -2.6919    3.5252 H   0  0  0  0  0  0  0  0  0  0  0  0
    6.4326    0.2464    4.9444 H   0  0  0  0  0  0  0  0  0  0  0  0
    7.4473   -1.2266    6.9285 H   0  0  0  0  0  0  0  0  0  0  0  0
    6.3340   -3.5203    6.7787 H   0  0  0  0  0  0  0  0  0  0  0  0
    5.7753    0.5631    2.8475 H   0  0  0  0  0  0  0  0  0  0  0  0
    4.4789    1.2612    0.9126 H   0  0  0  0  0  0  0  0  0  0  0  0
  1  2  2  0  0  0  0
  2  3  1  0  0  0  0
  2 17  1  0  0  0  0
  3  4  1  0  0  0  0
  3 29  1  0  0  0  0
  4  5  1  0  0  0  0
  4 30  1  0  0  0  0
  4 31  1  0  0  0  0
  5  6  2  0  0  0  0
  5 16  1  0  0  0  0
  6  7  1  0  0  0  0
  6 32  1  0  0  0  0
  7  8  2  0  0  0  0
  7 33  1  0  0  0  0
  8  9  1  0  0  0  0
  8 16  1  0  0  0  0
  9 10  2  0  0  0  0
  9 15  1  0  0  0  0
 10 11  1  0  0  0  0
 10 34  1  0  0  0  0
 11 12  1  0  0  0  0
 11 13  2  0  0  0  0
 13 14  1  0  0  0  0
 13 35  1  0  0  0  0
 14 15  2  0  0  0  0
 14 36  1  0  0  0  0
 15 37  1  0  0  0  0
 17 18  2  0  0  0  0
 17 28  1  0  0  0  0
 18 19  1  0  0  0  0
 18 38  1  0  0  0  0
 19 20  2  0  0  0  0
 19 39  1  0  0  0  0
 20 21  1  0  0  0  0
 20 27  1  0  0  0  0
 21 22  1  0  0  0  0
 21 25  1  0  0  0  0
 22 23  2  0  0  0  0
 22 40  1  0  0  0  0
 23 24  1  0  0  0  0
 23 41  1  0  0  0  0
 24 25  1  0  0  0  0
 24 42  1  0  0  0  0
 25 26  2  0  0  0  0
 27 28  2  0  0  0  0
 27 43  1  0  0  0  0
 28 44  1  0  0  0  0
M  END
$$$$
