
 OpenBabel01122422403D

 48 51  0  0  0  0  0  0  0  0999 V2000
    0.0285   -2.9371   -1.6657 O   0  0  0  0  0  0  0  0  0  0  0  0
    1.0760   -3.1124   -1.0659 C   0  0  0  0  0  0  0  0  0  0  0  0
    1.2054   -3.9868   -0.0469 O   0  0  0  0  0  0  0  0  0  0  0  0
    2.3152   -2.3567   -1.3697 C   0  0  0  0  0  0  0  0  0  0  0  0
    2.1992   -1.0441   -1.8325 C   0  0  0  0  0  0  0  0  0  0  0  0
    3.3455   -0.3072   -2.1074 C   0  0  0  0  0  0  0  0  0  0  0  0
    4.6076   -0.8715   -1.8943 C   0  0  0  0  0  0  0  0  0  0  0  0
    4.7572   -2.1912   -1.4266 C   0  0  0  0  0  0  0  0  0  0  0  0
    6.0914   -2.7448   -1.0910 C   0  0  0  0  0  0  0  0  0  0  0  0
    7.2557   -2.3602   -1.7772 C   0  0  0  0  0  0  0  0  0  0  0  0
    8.5193   -2.8047   -1.3747 C   0  0  0  0  0  0  0  0  0  0  0  0
    8.6498   -3.6490   -0.2755 C   0  0  0  0  0  0  0  0  0  0  0  0
    7.5149   -4.0631    0.4248 C   0  0  0  0  0  0  0  0  0  0  0  0
    7.6244   -4.9623    1.6252 C   0  0  0  0  0  0  0  0  0  0  0  0
    7.5881   -6.3523    1.2430 N   0  0  0  0  0  0  0  0  0  0  0  0
    6.4512   -7.1146    1.3947 C   0  0  0  0  0  0  0  0  0  0  0  0
    5.4089   -6.6997    1.8903 O   0  0  0  0  0  0  0  0  0  0  0  0
    6.5834   -8.5480    1.0205 C   0  0  0  0  0  0  0  0  0  0  0  0
    7.7232   -9.2360    1.4795 C   0  0  0  0  0  0  0  0  0  0  0  0
    7.8052  -10.6262    1.3848 C   0  0  0  0  0  0  0  0  0  0  0  0
    6.7320  -11.3495    0.8739 C   0  0  0  0  0  0  0  0  0  0  0  0
    5.5940  -10.6838    0.4133 C   0  0  0  0  0  0  0  0  0  0  0  0
    5.5295   -9.2761    0.4436 C   0  0  0  0  0  0  0  0  0  0  0  0
    4.4250   -8.6351   -0.1728 N   0  0  0  0  0  0  0  0  0  0  0  0
    4.5199   -7.3989   -0.7433 N   0  0  0  0  0  0  0  0  0  0  0  0
    3.3037   -7.2331   -1.2653 C   0  0  0  0  0  0  0  0  0  0  0  0
    2.5325   -8.3754   -1.0516 C   0  0  0  0  0  0  0  0  0  0  0  0
    3.2581   -9.3018   -0.4230 N   0  0  0  0  0  0  0  0  0  0  0  0
    6.2512   -3.6268   -0.0050 C   0  0  0  0  0  0  0  0  0  0  0  0
    3.5827   -2.9349   -1.2099 C   0  0  0  0  0  0  0  0  0  0  0  0
    2.0171   -3.8927    0.4878 H   0  0  0  0  0  0  0  0  0  0  0  0
    1.2179   -0.5943   -1.9744 H   0  0  0  0  0  0  0  0  0  0  0  0
    3.2642    0.7174   -2.4646 H   0  0  0  0  0  0  0  0  0  0  0  0
    5.4804   -0.2463   -2.0725 H   0  0  0  0  0  0  0  0  0  0  0  0
    7.1978   -1.6979   -2.6379 H   0  0  0  0  0  0  0  0  0  0  0  0
    9.4044   -2.4764   -1.9142 H   0  0  0  0  0  0  0  0  0  0  0  0
    9.6393   -3.9723    0.0366 H   0  0  0  0  0  0  0  0  0  0  0  0
    6.8274   -4.7373    2.3442 H   0  0  0  0  0  0  0  0  0  0  0  0
    8.5738   -4.7873    2.1424 H   0  0  0  0  0  0  0  0  0  0  0  0
    8.3656   -6.7183    0.7133 H   0  0  0  0  0  0  0  0  0  0  0  0
    8.5360   -8.7010    1.9657 H   0  0  0  0  0  0  0  0  0  0  0  0
    8.6903  -11.1455    1.7449 H   0  0  0  0  0  0  0  0  0  0  0  0
    6.7805  -12.4364    0.8275 H   0  0  0  0  0  0  0  0  0  0  0  0
    4.7780  -11.2718   -0.0025 H   0  0  0  0  0  0  0  0  0  0  0  0
    3.0488   -6.3135   -1.7716 H   0  0  0  0  0  0  0  0  0  0  0  0
    1.5091   -8.5804   -1.3322 H   0  0  0  0  0  0  0  0  0  0  0  0
    5.3847   -3.9706    0.5587 H   0  0  0  0  0  0  0  0  0  0  0  0
    3.6627   -3.9788   -0.9163 H   0  0  0  0  0  0  0  0  0  0  0  0
  1  2  2  0  0  0  0
  2  3  1  0  0  0  0
  2  4  1  0  0  0  0
  3 31  1  0  0  0  0
  4  5  2  0  0  0  0
  4 30  1  0  0  0  0
  5  6  1  0  0  0  0
  5 32  1  0  0  0  0
  6  7  2  0  0  0  0
  6 33  1  0  0  0  0
  7  8  1  0  0  0  0
  7 34  1  0  0  0  0
  8  9  1  0  0  0  0
  8 30  2  0  0  0  0
  9 10  2  0  0  0  0
  9 29  1  0  0  0  0
 10 11  1  0  0  0  0
 10 35  1  0  0  0  0
 11 12  2  0  0  0  0
 11 36  1  0  0  0  0
 12 13  1  0  0  0  0
 12 37  1  0  0  0  0
 13 14  1  0  0  0  0
 13 29  2  0  0  0  0
 14 15  1  0  0  0  0
 14 38  1  0  0  0  0
 14 39  1  0  0  0  0
 15 16  1  0  0  0  0
 15 40  1  0  0  0  0
 16 17  2  0  0  0  0
 16 18  1  0  0  0  0
 18 19  2  0  0  0  0
 18 23  1  0  0  0  0
 19 20  1  0  0  0  0
 19 41  1  0  0  0  0
 20 21  2  0  0  0  0
 20 42  1  0  0  0  0
 21 22  1  0  0  0  0
 21 43  1  0  0  0  0
 22 23  2  0  0  0  0
 22 44  1  0  0  0  0
 23 24  1  0  0  0  0
 24 25  1  0  0  0  0
 24 28  1  0  0  0  0
 25 26  2  0  0  0  0
 26 27  1  0  0  0  0
 26 45  1  0  0  0  0
 27 28  2  0  0  0  0
 27 46  1  0  0  0  0
 29 47  1  0  0  0  0
 30 48  1  0  0  0  0
M  END
$$$$
