
 OpenBabel01122422403D

 57 60  0  0  1  0  0  0  0  0999 V2000
    1.5308   -3.7835    7.7990 C   0  0  0  0  0  0  0  0  0  0  0  0
    2.5364   -2.6529    8.0281 C   0  0  3  0  0  0  0  0  0  0  0  0
    2.3257   -1.5639    7.0915 N   0  0  0  0  0  0  0  0  0  0  0  0
    2.5852   -1.6657    5.7457 C   0  0  0  0  0  0  0  0  0  0  0  0
    2.9705   -2.7065    5.2164 O   0  0  0  0  0  0  0  0  0  0  0  0
    2.2711   -0.4090    4.9248 C   0  0  0  0  0  0  0  0  0  0  0  0
    1.9743    0.7537    5.7513 N   0  0  0  0  0  0  0  0  0  0  0  0
    2.9630    1.6063    6.1690 C   0  0  0  0  0  0  0  0  0  0  0  0
    4.1367    1.4100    5.8624 O   0  0  0  0  0  0  0  0  0  0  0  0
    2.5073    2.7665    7.0122 C   0  0  0  0  0  0  0  0  0  0  0  0
    3.3574    3.4554    7.8099 C   0  0  0  0  0  0  0  0  0  0  0  0
    4.7783    3.0752    7.9491 C   0  0  0  0  0  0  0  0  0  0  0  0
    5.7613    3.6919    7.1643 C   0  0  0  0  0  0  0  0  0  0  0  0
    7.1120    3.4299    7.4004 C   0  0  0  0  0  0  0  0  0  0  0  0
    7.4889    2.5663    8.4290 C   0  0  0  0  0  0  0  0  0  0  0  0
    6.5165    1.9130    9.1846 C   0  0  0  0  0  0  0  0  0  0  0  0
    5.1630    2.1373    8.9233 C   0  0  0  0  0  0  0  0  0  0  0  0
    2.7874    4.6516    8.5566 C   0  0  0  0  0  0  0  0  0  0  0  0
    3.6641    5.5718    9.3759 C   0  0  0  0  0  0  0  0  0  0  0  0
    3.3516    6.9410    9.3861 C   0  0  0  0  0  0  0  0  0  0  0  0
    4.1308    7.8521   10.1086 C   0  0  0  0  0  0  0  0  0  0  0  0
    5.2472    7.4126   10.8136 C   0  0  0  0  0  0  0  0  0  0  0  0
    5.5474    6.0572   10.8438 C   0  0  0  0  0  0  0  0  0  0  0  0
    4.7315    5.1458   10.1686 C   0  0  0  0  0  0  0  0  0  0  0  0
    1.5322    4.9913    8.4966 N   0  0  0  0  0  0  0  0  0  0  0  0
    0.7083    4.2466    7.7332 N   0  0  0  0  0  0  0  0  0  0  0  0
    1.0724    3.1747    6.9759 C   0  0  0  0  0  0  0  0  0  0  0  0
    0.2323    2.5714    6.3085 O   0  0  0  0  0  0  0  0  0  0  0  0
    2.4026   -2.1728    9.4699 C   0  0  0  0  0  0  0  0  0  0  0  0
    3.1732   -2.7656   10.4706 C   0  0  0  0  0  0  0  0  0  0  0  0
    2.9227   -2.4360   11.7996 C   0  0  0  0  0  0  0  0  0  0  0  0
    1.9137   -1.5292   12.0977 C   0  0  0  0  0  0  0  0  0  0  0  0
    1.2104   -0.9639   11.0473 C   0  0  0  0  0  0  0  0  0  0  0  0
    1.4367   -1.2522    9.7455 N   0  0  0  0  0  0  0  0  0  0  0  0
    1.6208   -4.2051    6.7936 H   0  0  0  0  0  0  0  0  0  0  0  0
    0.5004   -3.4261    7.9130 H   0  0  0  0  0  0  0  0  0  0  0  0
    1.6837   -4.5990    8.5144 H   0  0  0  0  0  0  0  0  0  0  0  0
    3.5539   -3.0260    7.8580 H   0  0  0  0  0  0  0  0  0  0  0  0
    1.9742   -0.6894    7.4644 H   0  0  0  0  0  0  0  0  0  0  0  0
    1.3908   -0.6119    4.3074 H   0  0  0  0  0  0  0  0  0  0  0  0
    3.1290   -0.2003    4.2749 H   0  0  0  0  0  0  0  0  0  0  0  0
    0.9931    1.0002    5.8906 H   0  0  0  0  0  0  0  0  0  0  0  0
    5.4834    4.3766    6.3670 H   0  0  0  0  0  0  0  0  0  0  0  0
    7.8710    3.9092    6.7877 H   0  0  0  0  0  0  0  0  0  0  0  0
    8.5427    2.3983    8.6361 H   0  0  0  0  0  0  0  0  0  0  0  0
    6.8119    1.2474    9.9916 H   0  0  0  0  0  0  0  0  0  0  0  0
    4.4156    1.6378    9.5370 H   0  0  0  0  0  0  0  0  0  0  0  0
    2.4897    7.3136    8.8356 H   0  0  0  0  0  0  0  0  0  0  0  0
    3.8664    8.9063   10.1169 H   0  0  0  0  0  0  0  0  0  0  0  0
    5.8709    8.1186   11.3550 H   0  0  0  0  0  0  0  0  0  0  0  0
    6.4085    5.6964   11.4012 H   0  0  0  0  0  0  0  0  0  0  0  0
    4.9579    4.1015   10.3098 H   0  0  0  0  0  0  0  0  0  0  0  0
   -0.2674    4.5307    7.7005 H   0  0  0  0  0  0  0  0  0  0  0  0
    3.9356   -3.4987   10.2254 H   0  0  0  0  0  0  0  0  0  0  0  0
    3.4941   -2.9037   12.5968 H   0  0  0  0  0  0  0  0  0  0  0  0
    1.6745   -1.2766   13.1248 H   0  0  0  0  0  0  0  0  0  0  0  0
    0.4083   -0.2548   11.2329 H   0  0  0  0  0  0  0  0  0  0  0  0
  1  2  1  0  0  0  0
  1 35  1  0  0  0  0
  1 36  1  0  0  0  0
  1 37  1  0  0  0  0
  2  3  1  0  0  0  0
  2 29  1  0  0  0  0
  2 38  1  0  0  0  0
  3  4  1  0  0  0  0
  3 39  1  0  0  0  0
  4  5  2  0  0  0  0
  4  6  1  0  0  0  0
  6  7  1  0  0  0  0
  6 40  1  0  0  0  0
  6 41  1  0  0  0  0
  7  8  1  0  0  0  0
  7 42  1  0  0  0  0
  8  9  2  0  0  0  0
  8 10  1  0  0  0  0
 10 11  2  0  0  0  0
 10 27  1  0  0  0  0
 11 12  1  0  0  0  0
 11 18  1  0  0  0  0
 12 13  2  0  0  0  0
 12 17  1  0  0  0  0
 13 14  1  0  0  0  0
 13 43  1  0  0  0  0
 14 15  2  0  0  0  0
 14 44  1  0  0  0  0
 15 16  1  0  0  0  0
 15 45  1  0  0  0  0
 16 17  2  0  0  0  0
 16 46  1  0  0  0  0
 17 47  1  0  0  0  0
 18 19  1  0  0  0  0
 18 25  2  0  0  0  0
 19 20  2  0  0  0  0
 19 24  1  0  0  0  0
 20 21  1  0  0  0  0
 20 48  1  0  0  0  0
 21 22  2  0  0  0  0
 21 49  1  0  0  0  0
 22 23  1  0  0  0  0
 22 50  1  0  0  0  0
 23 24  2  0  0  0  0
 23 51  1  0  0  0  0
 24 52  1  0  0  0  0
 25 26  1  0  0  0  0
 26 27  1  0  0  0  0
 26 53  1  0  0  0  0
 27 28  2  0  0  0  0
 29 30  2  0  0  0  0
 29 34  1  0  0  0  0
 30 31  1  0  0  0  0
 30 54  1  0  0  0  0
 31 32  2  0  0  0  0
 31 55  1  0  0  0  0
 32 33  1  0  0  0  0
 32 56  1  0  0  0  0
 33 34  2  0  0  0  0
 33 57  1  0  0  0  0
M  END
$$$$
