
 OpenBabel01122422353D

 48 51  0  0  0  0  0  0  0  0999 V2000
    2.9678    0.9492    0.3049 O   0  0  0  0  0  0  0  0  0  0  0  0
    2.4131    0.0470   -0.3194 C   0  0  0  0  0  0  0  0  0  0  0  0
    0.8965   -0.0027   -0.5303 C   0  0  0  0  0  0  0  0  0  0  0  0
    0.4857    0.7217   -1.7512 N   0  0  0  0  0  0  0  0  0  0  0  0
    0.4116    0.0718   -2.9733 C   0  0  0  0  0  0  0  0  0  0  0  0
   -0.0116    0.6032   -4.1206 C   0  0  0  0  0  0  0  0  0  0  0  0
   -0.4553    2.0076   -4.1172 C   0  0  0  0  0  0  0  0  0  0  0  0
   -0.8312    2.5382   -5.1570 O   0  0  0  0  0  0  0  0  0  0  0  0
   -0.4336    2.7254   -2.8192 C   0  0  0  0  0  0  0  0  0  0  0  0
   -0.9278    4.0406   -2.7809 C   0  0  0  0  0  0  0  0  0  0  0  0
   -0.9264    4.7441   -1.5831 C   0  0  0  0  0  0  0  0  0  0  0  0
   -0.4041    4.1463   -0.4409 C   0  0  0  0  0  0  0  0  0  0  0  0
    0.0985    2.8348   -0.4852 C   0  0  0  0  0  0  0  0  0  0  0  0
    0.0670    2.0735   -1.6674 C   0  0  0  0  0  0  0  0  0  0  0  0
    3.1014   -1.0283   -0.8464 N   0  0  0  0  0  0  0  0  0  0  0  0
    4.5487   -1.1106   -0.7927 C   0  0  0  0  0  0  0  0  0  0  0  0
    5.0137   -2.5461   -0.9169 C   0  0  0  0  0  0  0  0  0  0  0  0
    5.7131   -3.1450    0.1254 C   0  0  0  0  0  0  0  0  0  0  0  0
    6.0211   -4.5035    0.0388 C   0  0  0  0  0  0  0  0  0  0  0  0
    6.6326   -5.2249    1.0433 O   0  0  0  0  0  0  0  0  0  0  0  0
    6.3890   -4.8753    2.3543 C   0  0  0  0  0  0  0  0  0  0  0  0
    5.1432   -4.4423    2.8190 C   0  0  0  0  0  0  0  0  0  0  0  0
    5.0216   -4.0055    4.1310 C   0  0  0  0  0  0  0  0  0  0  0  0
    3.8523   -3.5014    4.5468 F   0  0  0  0  0  0  0  0  0  0  0  0
    6.0964   -4.0604    5.0101 C   0  0  0  0  0  0  0  0  0  0  0  0
    7.3130   -4.5819    4.5738 C   0  0  0  0  0  0  0  0  0  0  0  0
    7.4590   -4.9907    3.2446 C   0  0  0  0  0  0  0  0  0  0  0  0
    5.7326   -5.1944   -1.1306 C   0  0  0  0  0  0  0  0  0  0  0  0
    5.0686   -4.5161   -2.1360 C   0  0  0  0  0  0  0  0  0  0  0  0
    4.6753   -3.2234   -2.0460 N   0  0  0  0  0  0  0  0  0  0  0  0
    0.3950    0.3533    0.3760 H   0  0  0  0  0  0  0  0  0  0  0  0
    0.5907   -1.0544   -0.6090 H   0  0  0  0  0  0  0  0  0  0  0  0
    0.7243   -0.9676   -2.9519 H   0  0  0  0  0  0  0  0  0  0  0  0
   -0.0585    0.0586   -5.0537 H   0  0  0  0  0  0  0  0  0  0  0  0
   -1.3183    4.5065   -3.6830 H   0  0  0  0  0  0  0  0  0  0  0  0
   -1.3205    5.7563   -1.5432 H   0  0  0  0  0  0  0  0  0  0  0  0
   -0.3826    4.6992    0.4956 H   0  0  0  0  0  0  0  0  0  0  0  0
    0.5173    2.4436    0.4365 H   0  0  0  0  0  0  0  0  0  0  0  0
    2.6578   -1.6145   -1.5433 H   0  0  0  0  0  0  0  0  0  0  0  0
    4.9058   -0.6575    0.1382 H   0  0  0  0  0  0  0  0  0  0  0  0
    4.9484   -0.5257   -1.6265 H   0  0  0  0  0  0  0  0  0  0  0  0
    5.9759   -2.5642    1.0031 H   0  0  0  0  0  0  0  0  0  0  0  0
    4.2760   -4.4008    2.1706 H   0  0  0  0  0  0  0  0  0  0  0  0
    5.9757   -3.7017    6.0270 H   0  0  0  0  0  0  0  0  0  0  0  0
    8.1518   -4.6552    5.2618 H   0  0  0  0  0  0  0  0  0  0  0  0
    8.4142   -5.3803    2.9008 H   0  0  0  0  0  0  0  0  0  0  0  0
    6.0076   -6.2363   -1.2498 H   0  0  0  0  0  0  0  0  0  0  0  0
    4.8176   -5.0120   -3.0698 H   0  0  0  0  0  0  0  0  0  0  0  0
  1  2  2  0  0  0  0
  2  3  1  0  0  0  0
  2 15  1  0  0  0  0
  3  4  1  0  0  0  0
  3 31  1  0  0  0  0
  3 32  1  0  0  0  0
  4  5  1  0  0  0  0
  4 14  1  0  0  0  0
  5  6  2  0  0  0  0
  5 33  1  0  0  0  0
  6  7  1  0  0  0  0
  6 34  1  0  0  0  0
  7  8  2  0  0  0  0
  7  9  1  0  0  0  0
  9 10  2  0  0  0  0
  9 14  1  0  0  0  0
 10 11  1  0  0  0  0
 10 35  1  0  0  0  0
 11 12  2  0  0  0  0
 11 36  1  0  0  0  0
 12 13  1  0  0  0  0
 12 37  1  0  0  0  0
 13 14  2  0  0  0  0
 13 38  1  0  0  0  0
 15 16  1  0  0  0  0
 15 39  1  0  0  0  0
 16 17  1  0  0  0  0
 16 40  1  0  0  0  0
 16 41  1  0  0  0  0
 17 18  2  0  0  0  0
 17 30  1  0  0  0  0
 18 19  1  0  0  0  0
 18 42  1  0  0  0  0
 19 20  1  0  0  0  0
 19 28  2  0  0  0  0
 20 21  1  0  0  0  0
 21 22  2  0  0  0  0
 21 27  1  0  0  0  0
 22 23  1  0  0  0  0
 22 43  1  0  0  0  0
 23 24  1  0  0  0  0
 23 25  2  0  0  0  0
 25 26  1  0  0  0  0
 25 44  1  0  0  0  0
 26 27  2  0  0  0  0
 26 45  1  0  0  0  0
 27 46  1  0  0  0  0
 28 29  1  0  0  0  0
 28 47  1  0  0  0  0
 29 30  2  0  0  0  0
 29 48  1  0  0  0  0
M  END
$$$$
