
 OpenBabel01122422353D

 46 49  0  0  0  0  0  0  0  0999 V2000
    7.7789   -5.2711   -4.3317 C   0  0  0  0  0  0  0  0  0  0  0  0
    6.6031   -4.6049   -3.8281 N   0  0  0  0  0  0  0  0  0  0  0  0
    6.4203   -4.0993   -2.5758 C   0  0  0  0  0  0  0  0  0  0  0  0
    5.1748   -3.5034   -2.5736 C   0  0  0  0  0  0  0  0  0  0  0  0
    4.5933   -2.8001   -1.4440 C   0  0  0  0  0  0  0  0  0  0  0  0
    3.3153   -2.2472   -1.5386 C   0  0  0  0  0  0  0  0  0  0  0  0
    2.7929   -1.5567   -0.4508 C   0  0  0  0  0  0  0  0  0  0  0  0
    3.5572   -1.4393    0.6995 C   0  0  0  0  0  0  0  0  0  0  0  0
    4.8217   -2.0192    0.7190 C   0  0  0  0  0  0  0  0  0  0  0  0
    5.6494   -1.8895    1.9582 C   0  0  0  0  0  0  0  0  0  0  0  0
    5.1820   -1.2973    2.9275 O   0  0  0  0  0  0  0  0  0  0  0  0
    6.9205   -2.4381    1.8793 N   0  0  0  0  0  0  0  0  0  0  0  0
    7.8816   -2.4440    2.9127 C   0  0  0  0  0  0  0  0  0  0  0  0
    7.5886   -2.1458    4.2447 C   0  0  0  0  0  0  0  0  0  0  0  0
    8.6065   -2.1025    5.2018 C   0  0  0  0  0  0  0  0  0  0  0  0
    9.8980   -2.3853    4.7920 C   0  0  0  0  0  0  0  0  0  0  0  0
   10.9160   -2.2555    5.7317 O   0  0  0  0  0  0  0  0  0  0  0  0
   12.1501   -1.8333    5.2663 C   0  0  0  0  0  0  0  0  0  0  0  0
   12.2606   -0.8750    4.2436 C   0  0  0  0  0  0  0  0  0  0  0  0
   13.5073   -0.4736    3.7700 C   0  0  0  0  0  0  0  0  0  0  0  0
   14.6638   -0.9790    4.3572 C   0  0  0  0  0  0  0  0  0  0  0  0
   14.5673   -1.8937    5.4071 C   0  0  0  0  0  0  0  0  0  0  0  0
   13.3126   -2.3314    5.8688 C   0  0  0  0  0  0  0  0  0  0  0  0
   13.2656   -3.2886    6.9395 C   0  0  0  0  0  0  0  0  0  0  0  0
   13.2806   -4.0569    7.8072 N   0  0  0  0  0  0  0  0  0  0  0  0
   10.2104   -2.7520    3.5284 N   0  0  0  0  0  0  0  0  0  0  0  0
    9.2043   -2.7545    2.6198 C   0  0  0  0  0  0  0  0  0  0  0  0
    5.3650   -2.6961   -0.3285 N   0  0  0  0  0  0  0  0  0  0  0  0
    4.6859   -3.7398   -3.8801 C   0  0  0  0  0  0  0  0  0  0  0  0
    5.5531   -4.4080   -4.6441 N   0  0  0  0  0  0  0  0  0  0  0  0
    8.4830   -5.4317   -3.5117 H   0  0  0  0  0  0  0  0  0  0  0  0
    8.2309   -4.6320   -5.0943 H   0  0  0  0  0  0  0  0  0  0  0  0
    7.4779   -6.2299   -4.7596 H   0  0  0  0  0  0  0  0  0  0  0  0
    7.1745   -4.1879   -1.8075 H   0  0  0  0  0  0  0  0  0  0  0  0
    2.7197   -2.3364   -2.4412 H   0  0  0  0  0  0  0  0  0  0  0  0
    1.8031   -1.1120   -0.5010 H   0  0  0  0  0  0  0  0  0  0  0  0
    3.1778   -0.9020    1.5637 H   0  0  0  0  0  0  0  0  0  0  0  0
    7.1827   -2.7886    0.9595 H   0  0  0  0  0  0  0  0  0  0  0  0
    6.5741   -1.9454    4.5722 H   0  0  0  0  0  0  0  0  0  0  0  0
    8.3851   -1.8284    6.2266 H   0  0  0  0  0  0  0  0  0  0  0  0
   11.3723   -0.4556    3.7767 H   0  0  0  0  0  0  0  0  0  0  0  0
   13.5670    0.2264    2.9396 H   0  0  0  0  0  0  0  0  0  0  0  0
   15.6361   -0.6570    3.9909 H   0  0  0  0  0  0  0  0  0  0  0  0
   15.4837   -2.2707    5.8591 H   0  0  0  0  0  0  0  0  0  0  0  0
    9.5278   -2.9831    1.6092 H   0  0  0  0  0  0  0  0  0  0  0  0
    3.7391   -3.4495   -4.3167 H   0  0  0  0  0  0  0  0  0  0  0  0
  1  2  1  0  0  0  0
  1 31  1  0  0  0  0
  1 32  1  0  0  0  0
  1 33  1  0  0  0  0
  2  3  1  0  0  0  0
  2 30  1  0  0  0  0
  3  4  2  0  0  0  0
  3 34  1  0  0  0  0
  4  5  1  0  0  0  0
  4 29  1  0  0  0  0
  5  6  2  0  0  0  0
  5 28  1  0  0  0  0
  6  7  1  0  0  0  0
  6 35  1  0  0  0  0
  7  8  2  0  0  0  0
  7 36  1  0  0  0  0
  8  9  1  0  0  0  0
  8 37  1  0  0  0  0
  9 10  1  0  0  0  0
  9 28  2  0  0  0  0
 10 11  2  0  0  0  0
 10 12  1  0  0  0  0
 12 13  1  0  0  0  0
 12 38  1  0  0  0  0
 13 14  2  0  0  0  0
 13 27  1  0  0  0  0
 14 15  1  0  0  0  0
 14 39  1  0  0  0  0
 15 16  2  0  0  0  0
 15 40  1  0  0  0  0
 16 17  1  0  0  0  0
 16 26  1  0  0  0  0
 17 18  1  0  0  0  0
 18 19  2  0  0  0  0
 18 23  1  0  0  0  0
 19 20  1  0  0  0  0
 19 41  1  0  0  0  0
 20 21  2  0  0  0  0
 20 42  1  0  0  0  0
 21 22  1  0  0  0  0
 21 43  1  0  0  0  0
 22 23  2  0  0  0  0
 22 44  1  0  0  0  0
 23 24  1  0  0  0  0
 24 25  3  0  0  0  0
 26 27  2  0  0  0  0
 27 45  1  0  0  0  0
 29 30  2  0  0  0  0
 29 46  1  0  0  0  0
M  END
$$$$
