
 OpenBabel01122422403D

 45 48  0  0  0  0  0  0  0  0999 V2000
    2.8264    1.8827    0.6376 O   0  0  0  0  0  0  0  0  0  0  0  0
    2.2873    0.7962    0.8118 C   0  0  0  0  0  0  0  0  0  0  0  0
    0.7806    0.6068    0.8085 C   0  0  0  0  0  0  0  0  0  0  0  0
    0.2304    0.9658    2.1050 N   0  0  0  0  0  0  0  0  0  0  0  0
   -0.1735    2.2538    2.3646 C   0  0  0  0  0  0  0  0  0  0  0  0
   -0.7153    2.6510    3.4664 N   0  0  0  0  0  0  0  0  0  0  0  0
   -0.9064    1.6962    4.4799 C   0  0  0  0  0  0  0  0  0  0  0  0
   -1.5292    2.0823    5.6710 C   0  0  0  0  0  0  0  0  0  0  0  0
   -1.7385    1.1507    6.6932 C   0  0  0  0  0  0  0  0  0  0  0  0
   -1.3106   -0.1616    6.5295 C   0  0  0  0  0  0  0  0  0  0  0  0
   -1.5112   -1.0494    7.5118 F   0  0  0  0  0  0  0  0  0  0  0  0
   -0.6867   -0.5686    5.3590 C   0  0  0  0  0  0  0  0  0  0  0  0
   -0.4997    0.3681    4.3372 C   0  0  0  0  0  0  0  0  0  0  0  0
    0.1025   -0.0283    3.0557 C   0  0  0  0  0  0  0  0  0  0  0  0
    0.4418   -1.1941    2.8748 O   0  0  0  0  0  0  0  0  0  0  0  0
    2.9314   -0.3624    1.0979 O   0  0  0  0  0  0  0  0  0  0  0  0
    4.3681   -0.3068    1.1761 C   0  0  0  0  0  0  0  0  0  0  0  0
    4.8693   -0.6444    2.5373 C   0  0  0  0  0  0  0  0  0  0  0  0
    5.1558    0.1956    3.5886 C   0  0  0  0  0  0  0  0  0  0  0  0
    5.6048   -0.5589    4.6301 O   0  0  0  0  0  0  0  0  0  0  0  0
    5.5744   -1.8458    4.1563 C   0  0  0  0  0  0  0  0  0  0  0  0
    5.9846   -2.9040    5.0787 C   0  0  0  0  0  0  0  0  0  0  0  0
    6.0070   -4.2339    4.6325 C   0  0  0  0  0  0  0  0  0  0  0  0
    6.3637   -5.2756    5.4911 C   0  0  0  0  0  0  0  0  0  0  0  0
    6.6886   -5.0039    6.8183 C   0  0  0  0  0  0  0  0  0  0  0  0
    6.6669   -3.6874    7.2998 C   0  0  0  0  0  0  0  0  0  0  0  0
    6.9654   -3.3902    8.7494 C   0  0  0  0  0  0  0  0  0  0  0  0
    7.2050   -4.5056    9.4952 F   0  0  0  0  0  0  0  0  0  0  0  0
    8.0577   -2.5939    8.9091 F   0  0  0  0  0  0  0  0  0  0  0  0
    5.9376   -2.7455    9.3689 F   0  0  0  0  0  0  0  0  0  0  0  0
    6.3317   -2.6431    6.4151 C   0  0  0  0  0  0  0  0  0  0  0  0
    5.1586   -1.9428    2.9061 N   0  0  0  0  0  0  0  0  0  0  0  0
    0.5273   -0.4250    0.5389 H   0  0  0  0  0  0  0  0  0  0  0  0
    0.3605    1.2570    0.0301 H   0  0  0  0  0  0  0  0  0  0  0  0
   -0.0051    2.9718    1.5394 H   0  0  0  0  0  0  0  0  0  0  0  0
   -1.8583    3.1104    5.7972 H   0  0  0  0  0  0  0  0  0  0  0  0
   -2.2337    1.4426    7.6143 H   0  0  0  0  0  0  0  0  0  0  0  0
   -0.3642   -1.5978    5.2453 H   0  0  0  0  0  0  0  0  0  0  0  0
    4.7700    0.6629    0.8620 H   0  0  0  0  0  0  0  0  0  0  0  0
    4.7475   -1.0467    0.4623 H   0  0  0  0  0  0  0  0  0  0  0  0
    5.1076    1.2621    3.7526 H   0  0  0  0  0  0  0  0  0  0  0  0
    5.7338   -4.4655    3.6034 H   0  0  0  0  0  0  0  0  0  0  0  0
    6.3723   -6.2997    5.1262 H   0  0  0  0  0  0  0  0  0  0  0  0
    6.9470   -5.8286    7.4815 H   0  0  0  0  0  0  0  0  0  0  0  0
    6.3243   -1.6183    6.7873 H   0  0  0  0  0  0  0  0  0  0  0  0
  1  2  2  0  0  0  0
  2  3  1  0  0  0  0
  2 16  1  0  0  0  0
  3  4  1  0  0  0  0
  3 33  1  0  0  0  0
  3 34  1  0  0  0  0
  4  5  1  0  0  0  0
  4 14  1  0  0  0  0
  5  6  2  0  0  0  0
  5 35  1  0  0  0  0
  6  7  1  0  0  0  0
  7  8  2  0  0  0  0
  7 13  1  0  0  0  0
  8  9  1  0  0  0  0
  8 36  1  0  0  0  0
  9 10  2  0  0  0  0
  9 37  1  0  0  0  0
 10 11  1  0  0  0  0
 10 12  1  0  0  0  0
 12 13  2  0  0  0  0
 12 38  1  0  0  0  0
 13 14  1  0  0  0  0
 14 15  2  0  0  0  0
 16 17  1  0  0  0  0
 17 18  1  0  0  0  0
 17 39  1  0  0  0  0
 17 40  1  0  0  0  0
 18 19  2  0  0  0  0
 18 32  1  0  0  0  0
 19 20  1  0  0  0  0
 19 41  1  0  0  0  0
 20 21  1  0  0  0  0
 21 22  1  0  0  0  0
 21 32  2  0  0  0  0
 22 23  2  0  0  0  0
 22 31  1  0  0  0  0
 23 24  1  0  0  0  0
 23 42  1  0  0  0  0
 24 25  2  0  0  0  0
 24 43  1  0  0  0  0
 25 26  1  0  0  0  0
 25 44  1  0  0  0  0
 26 27  1  0  0  0  0
 26 31  2  0  0  0  0
 27 28  1  0  0  0  0
 27 29  1  0  0  0  0
 27 30  1  0  0  0  0
 31 45  1  0  0  0  0
M  END
$$$$
