
 OpenBabel01122422403D

 52 55  0  0  1  0  0  0  0  0999 V2000
    7.0174    5.6448    2.1940 C   0  0  0  0  0  0  0  0  0  0  0  0
    6.1249    4.6731    1.6098 N   0  0  0  0  0  0  0  0  0  0  0  0
    5.9478    4.4209    0.2844 C   0  0  0  0  0  0  0  0  0  0  0  0
    4.9312    3.4994    0.2074 C   0  0  0  0  0  0  0  0  0  0  0  0
    4.5382    3.2587    1.5507 C   0  0  0  0  0  0  0  0  0  0  0  0
    3.4239    2.3937    2.0872 C   0  0  3  0  0  0  0  0  0  0  0  0
    2.1749    2.4277    1.3187 N   0  0  0  0  0  0  0  0  0  0  0  0
    1.3419    3.8486    1.0054 S   0  0  0  0  0  0  0  0  0  0  0  0
    2.1697    4.7011    0.1749 O   0  0  0  0  0  0  0  0  0  0  0  0
    0.0450    3.4354    0.5310 O   0  0  0  0  0  0  0  0  0  0  0  0
    1.1522    4.6654    2.5752 C   0  0  0  0  0  0  0  0  0  0  0  0
    2.2289    5.4697    2.9983 C   0  0  0  0  0  0  0  0  0  0  0  0
    2.1373    6.2675    4.1389 C   0  0  0  0  0  0  0  0  0  0  0  0
    0.9477    6.3127    4.8516 C   0  0  0  0  0  0  0  0  0  0  0  0
   -0.1348    5.5427    4.4294 C   0  0  0  0  0  0  0  0  0  0  0  0
   -0.0448    4.7033    3.2980 C   0  0  0  0  0  0  0  0  0  0  0  0
   -1.3098    4.0122    2.9643 C   0  0  0  0  0  0  0  0  0  0  0  0
   -2.3222    4.7078    2.8807 O   0  0  0  0  0  0  0  0  0  0  0  0
   -1.4446    2.5327    2.9081 C   0  0  0  0  0  0  0  0  0  0  0  0
   -2.6314    2.0077    2.3741 C   0  0  0  0  0  0  0  0  0  0  0  0
   -2.8719    0.6351    2.3985 C   0  0  0  0  0  0  0  0  0  0  0  0
   -1.9213   -0.2235    2.9447 C   0  0  0  0  0  0  0  0  0  0  0  0
   -0.7245    0.2877    3.4513 C   0  0  0  0  0  0  0  0  0  0  0  0
   -0.4861    1.6655    3.4428 C   0  0  0  0  0  0  0  0  0  0  0  0
    4.0444    0.9969    2.1891 C   0  0  0  0  0  0  0  0  0  0  0  0
    4.6723    0.6116    3.3940 C   0  0  0  0  0  0  0  0  0  0  0  0
    5.2984   -0.6325    3.5145 C   0  0  0  0  0  0  0  0  0  0  0  0
    5.3071   -1.4988    2.4314 C   0  0  0  0  0  0  0  0  0  0  0  0
    5.9218   -2.6841    2.5414 F   0  0  0  0  0  0  0  0  0  0  0  0
    4.6991   -1.1486    1.2325 C   0  0  0  0  0  0  0  0  0  0  0  0
    4.0681    0.0960    1.1073 C   0  0  0  0  0  0  0  0  0  0  0  0
    5.2914    3.9786    2.4054 N   0  0  0  0  0  0  0  0  0  0  0  0
    7.8003    5.8981    1.4754 H   0  0  0  0  0  0  0  0  0  0  0  0
    7.4640    5.2186    3.0960 H   0  0  0  0  0  0  0  0  0  0  0  0
    6.4294    6.5323    2.4422 H   0  0  0  0  0  0  0  0  0  0  0  0
    6.5171    4.9313   -0.4804 H   0  0  0  0  0  0  0  0  0  0  0  0
    4.4849    3.1019   -0.6938 H   0  0  0  0  0  0  0  0  0  0  0  0
    3.1699    2.6989    3.1107 H   0  0  0  0  0  0  0  0  0  0  0  0
    1.5581    1.6226    1.4149 H   0  0  0  0  0  0  0  0  0  0  0  0
    3.1507    5.5155    2.4205 H   0  0  0  0  0  0  0  0  0  0  0  0
    2.9833    6.8800    4.4445 H   0  0  0  0  0  0  0  0  0  0  0  0
    0.8502    6.9671    5.7133 H   0  0  0  0  0  0  0  0  0  0  0  0
   -1.0770    5.6232    4.9726 H   0  0  0  0  0  0  0  0  0  0  0  0
   -3.3834    2.6741    1.9538 H   0  0  0  0  0  0  0  0  0  0  0  0
   -3.8081    0.2428    2.0076 H   0  0  0  0  0  0  0  0  0  0  0  0
   -2.1216   -1.2917    2.9886 H   0  0  0  0  0  0  0  0  0  0  0  0
    0.0083   -0.3910    3.8808 H   0  0  0  0  0  0  0  0  0  0  0  0
    0.4296    2.0376    3.8899 H   0  0  0  0  0  0  0  0  0  0  0  0
    4.7021    1.2972    4.2402 H   0  0  0  0  0  0  0  0  0  0  0  0
    5.7947   -0.9147    4.4380 H   0  0  0  0  0  0  0  0  0  0  0  0
    4.7359   -1.8399    0.3960 H   0  0  0  0  0  0  0  0  0  0  0  0
    3.6205    0.3645    0.1541 H   0  0  0  0  0  0  0  0  0  0  0  0
  1  2  1  0  0  0  0
  1 33  1  0  0  0  0
  1 34  1  0  0  0  0
  1 35  1  0  0  0  0
  2  3  1  0  0  0  0
  2 32  1  0  0  0  0
  3  4  2  0  0  0  0
  3 36  1  0  0  0  0
  4  5  1  0  0  0  0
  4 37  1  0  0  0  0
  5  6  1  0  0  0  0
  5 32  2  0  0  0  0
  6  7  1  0  0  0  0
  6 25  1  0  0  0  0
  6 38  1  0  0  0  0
  7  8  1  0  0  0  0
  7 39  1  0  0  0  0
  8  9  2  0  0  0  0
  8 10  2  0  0  0  0
  8 11  1  0  0  0  0
 11 12  2  0  0  0  0
 11 16  1  0  0  0  0
 12 13  1  0  0  0  0
 12 40  1  0  0  0  0
 13 14  2  0  0  0  0
 13 41  1  0  0  0  0
 14 15  1  0  0  0  0
 14 42  1  0  0  0  0
 15 16  2  0  0  0  0
 15 43  1  0  0  0  0
 16 17  1  0  0  0  0
 17 18  2  0  0  0  0
 17 19  1  0  0  0  0
 19 20  2  0  0  0  0
 19 24  1  0  0  0  0
 20 21  1  0  0  0  0
 20 44  1  0  0  0  0
 21 22  2  0  0  0  0
 21 45  1  0  0  0  0
 22 23  1  0  0  0  0
 22 46  1  0  0  0  0
 23 24  2  0  0  0  0
 23 47  1  0  0  0  0
 24 48  1  0  0  0  0
 25 26  2  0  0  0  0
 25 31  1  0  0  0  0
 26 27  1  0  0  0  0
 26 49  1  0  0  0  0
 27 28  2  0  0  0  0
 27 50  1  0  0  0  0
 28 29  1  0  0  0  0
 28 30  1  0  0  0  0
 30 31  2  0  0  0  0
 30 51  1  0  0  0  0
 31 52  1  0  0  0  0
M  END
$$$$
