
 OpenBabel01122422403D

 41 44  0  0  0  0  0  0  0  0999 V2000
    1.0176    0.3259   -0.3368 O   0  0  0  0  0  0  0  0  0  0  0  0
    2.1630   -0.0256   -0.0882 C   0  0  0  0  0  0  0  0  0  0  0  0
    2.7967   -1.1250   -0.6115 N   0  0  0  0  0  0  0  0  0  0  0  0
    2.2077   -2.0339   -1.4787 C   0  0  0  0  0  0  0  0  0  0  0  0
    2.9011   -3.1665   -1.6648 N   0  0  0  0  0  0  0  0  0  0  0  0
    2.3413   -4.1181   -2.4519 C   0  0  0  0  0  0  0  0  0  0  0  0
    3.1100   -5.3713   -2.5989 C   0  0  0  0  0  0  0  0  0  0  0  0
    3.9226   -5.8497   -1.5544 C   0  0  0  0  0  0  0  0  0  0  0  0
    4.6329   -7.0428   -1.6847 C   0  0  0  0  0  0  0  0  0  0  0  0
    5.3882   -7.4731   -0.6665 F   0  0  0  0  0  0  0  0  0  0  0  0
    4.5651   -7.7942   -2.8472 C   0  0  0  0  0  0  0  0  0  0  0  0
    3.7742   -7.3334   -3.8849 C   0  0  0  0  0  0  0  0  0  0  0  0
    3.6927   -8.0423   -5.0187 F   0  0  0  0  0  0  0  0  0  0  0  0
    3.0563   -6.1430   -3.7747 C   0  0  0  0  0  0  0  0  0  0  0  0
    1.1121   -3.9312   -3.0563 C   0  0  0  0  0  0  0  0  0  0  0  0
    0.4980   -2.7288   -2.8234 C   0  0  0  0  0  0  0  0  0  0  0  0
    1.0267   -1.7771   -2.0424 N   0  0  0  0  0  0  0  0  0  0  0  0
    2.9668    0.6964    0.8701 C   0  0  0  0  0  0  0  0  0  0  0  0
    4.2818    1.1058    0.7414 C   0  0  0  0  0  0  0  0  0  0  0  0
    4.6550    1.9276    1.7632 N   0  0  0  0  0  0  0  0  0  0  0  0
    3.5822    2.0401    2.5120 C   0  0  0  0  0  0  0  0  0  0  0  0
    2.5256    1.2758    2.0564 N   0  0  0  0  0  0  0  0  0  0  0  0
    1.2835    1.1064    2.7365 C   0  0  0  0  0  0  0  0  0  0  0  0
    0.5405   -0.0724    2.5939 C   0  0  0  0  0  0  0  0  0  0  0  0
   -0.6725   -0.2105    3.2625 C   0  0  0  0  0  0  0  0  0  0  0  0
   -1.3712   -1.3460    3.1278 F   0  0  0  0  0  0  0  0  0  0  0  0
   -1.1657    0.8001    4.0762 C   0  0  0  0  0  0  0  0  0  0  0  0
   -0.4255    1.9692    4.2391 C   0  0  0  0  0  0  0  0  0  0  0  0
    0.8010    2.1197    3.5817 C   0  0  0  0  0  0  0  0  0  0  0  0
    3.7011   -1.4113   -0.2752 H   0  0  0  0  0  0  0  0  0  0  0  0
    4.0035   -5.3005   -0.6186 H   0  0  0  0  0  0  0  0  0  0  0  0
    5.1172   -8.7218   -2.9405 H   0  0  0  0  0  0  0  0  0  0  0  0
    2.4676   -5.8290   -4.6326 H   0  0  0  0  0  0  0  0  0  0  0  0
    0.6312   -4.6830   -3.6661 H   0  0  0  0  0  0  0  0  0  0  0  0
   -0.4682   -2.4887   -3.2566 H   0  0  0  0  0  0  0  0  0  0  0  0
    4.9624    0.8954   -0.0749 H   0  0  0  0  0  0  0  0  0  0  0  0
    3.5352    2.6169    3.4260 H   0  0  0  0  0  0  0  0  0  0  0  0
    0.8752   -0.9130    1.9969 H   0  0  0  0  0  0  0  0  0  0  0  0
   -2.1212    0.6703    4.5744 H   0  0  0  0  0  0  0  0  0  0  0  0
   -0.8102    2.7696    4.8659 H   0  0  0  0  0  0  0  0  0  0  0  0
    1.3297    3.0618    3.7088 H   0  0  0  0  0  0  0  0  0  0  0  0
  1  2  2  0  0  0  0
  2  3  1  0  0  0  0
  2 18  1  0  0  0  0
  3  4  1  0  0  0  0
  3 30  1  0  0  0  0
  4  5  2  0  0  0  0
  4 17  1  0  0  0  0
  5  6  1  0  0  0  0
  6  7  1  0  0  0  0
  6 15  2  0  0  0  0
  7  8  2  0  0  0  0
  7 14  1  0  0  0  0
  8  9  1  0  0  0  0
  8 31  1  0  0  0  0
  9 10  1  0  0  0  0
  9 11  2  0  0  0  0
 11 12  1  0  0  0  0
 11 32  1  0  0  0  0
 12 13  1  0  0  0  0
 12 14  2  0  0  0  0
 14 33  1  0  0  0  0
 15 16  1  0  0  0  0
 15 34  1  0  0  0  0
 16 17  2  0  0  0  0
 16 35  1  0  0  0  0
 18 19  2  0  0  0  0
 18 22  1  0  0  0  0
 19 20  1  0  0  0  0
 19 36  1  0  0  0  0
 20 21  2  0  0  0  0
 21 22  1  0  0  0  0
 21 37  1  0  0  0  0
 22 23  1  0  0  0  0
 23 24  2  0  0  0  0
 23 29  1  0  0  0  0
 24 25  1  0  0  0  0
 24 38  1  0  0  0  0
 25 26  1  0  0  0  0
 25 27  2  0  0  0  0
 27 28  1  0  0  0  0
 27 39  1  0  0  0  0
 28 29  2  0  0  0  0
 28 40  1  0  0  0  0
 29 41  1  0  0  0  0
M  END
$$$$
