
 OpenBabel01122422403D

 51 54  0  0  0  0  0  0  0  0999 V2000
   -3.3563   -3.6676   -7.6591 N   0  0  0  0  0  0  0  0  0  0  0  0
   -2.7455   -3.6519   -6.4422 C   0  0  0  0  0  0  0  0  0  0  0  0
   -3.3774   -3.4069   -5.4074 O   0  0  0  0  0  0  0  0  0  0  0  0
   -1.2724   -3.9349   -6.4305 C   0  0  0  0  0  0  0  0  0  0  0  0
   -0.5837   -3.9674   -5.2329 C   0  0  0  0  0  0  0  0  0  0  0  0
    0.7904   -4.2188   -5.2647 C   0  0  0  0  0  0  0  0  0  0  0  0
    1.4347   -4.4544   -6.4832 C   0  0  0  0  0  0  0  0  0  0  0  0
    2.9281   -4.6783   -6.6066 C   0  0  0  0  0  0  0  0  0  0  0  0
    3.6064   -5.3024   -5.3971 C   0  0  0  0  0  0  0  0  0  0  0  0
    3.6492   -4.7459   -4.3009 O   0  0  0  0  0  0  0  0  0  0  0  0
    4.2071   -6.5233   -5.6145 N   0  0  0  0  0  0  0  0  0  0  0  0
    4.8848   -7.1792   -4.5237 C   0  0  0  0  0  0  0  0  0  0  0  0
    5.5824   -8.4362   -4.9492 C   0  0  0  0  0  0  0  0  0  0  0  0
    6.8980   -8.3663   -5.4006 C   0  0  0  0  0  0  0  0  0  0  0  0
    7.5923   -9.5325   -5.7010 C   0  0  0  0  0  0  0  0  0  0  0  0
    7.0336  -10.8198   -5.5252 C   0  0  0  0  0  0  0  0  0  0  0  0
    7.9059  -12.0094   -5.6984 C   0  0  0  0  0  0  0  0  0  0  0  0
    9.2870  -11.8543   -5.4462 C   0  0  0  0  0  0  0  0  0  0  0  0
   10.2098  -12.8155   -5.8268 C   0  0  0  0  0  0  0  0  0  0  0  0
    9.7777  -14.0378   -6.2932 C   0  0  0  0  0  0  0  0  0  0  0  0
   10.7198  -14.9983   -6.6746 C   0  0  0  0  0  0  0  0  0  0  0  0
   10.3899  -16.3416   -6.6005 C   0  0  0  0  0  0  0  0  0  0  0  0
    9.0583  -16.7030   -6.4387 C   0  0  0  0  0  0  0  0  0  0  0  0
    8.0600  -15.7155   -6.4092 C   0  0  0  0  0  0  0  0  0  0  0  0
    8.4082  -14.3565   -6.2774 C   0  0  0  0  0  0  0  0  0  0  0  0
    7.4772  -13.2911   -6.0931 C   0  0  0  0  0  0  0  0  0  0  0  0
    5.6828  -10.8720   -5.1582 C   0  0  0  0  0  0  0  0  0  0  0  0
    4.9629   -9.6938   -4.8805 C   0  0  0  0  0  0  0  0  0  0  0  0
    0.6507   -4.3800   -7.6324 C   0  0  0  0  0  0  0  0  0  0  0  0
   -0.6868   -4.1409   -7.6457 N   0  0  0  0  0  0  0  0  0  0  0  0
   -4.3374   -3.4885   -7.7384 H   0  0  0  0  0  0  0  0  0  0  0  0
   -2.7900   -3.8682   -8.4787 H   0  0  0  0  0  0  0  0  0  0  0  0
   -1.0873   -3.7863   -4.2889 H   0  0  0  0  0  0  0  0  0  0  0  0
    1.3288   -4.2196   -4.3216 H   0  0  0  0  0  0  0  0  0  0  0  0
    3.4184   -3.7136   -6.7859 H   0  0  0  0  0  0  0  0  0  0  0  0
    3.1290   -5.3036   -7.4850 H   0  0  0  0  0  0  0  0  0  0  0  0
    4.2666   -6.9265   -6.5403 H   0  0  0  0  0  0  0  0  0  0  0  0
    4.1559   -7.3885   -3.7319 H   0  0  0  0  0  0  0  0  0  0  0  0
    5.6126   -6.4758   -4.0959 H   0  0  0  0  0  0  0  0  0  0  0  0
    7.4114   -7.4117   -5.4833 H   0  0  0  0  0  0  0  0  0  0  0  0
    8.6175   -9.4193   -6.0471 H   0  0  0  0  0  0  0  0  0  0  0  0
    9.6581  -10.9686   -4.9389 H   0  0  0  0  0  0  0  0  0  0  0  0
   11.2763  -12.6176   -5.6566 H   0  0  0  0  0  0  0  0  0  0  0  0
   11.7179  -14.6959   -6.9924 H   0  0  0  0  0  0  0  0  0  0  0  0
   11.1753  -17.0915   -6.6591 H   0  0  0  0  0  0  0  0  0  0  0  0
    8.7964  -17.7569   -6.3685 H   0  0  0  0  0  0  0  0  0  0  0  0
    7.0191  -16.0264   -6.4015 H   0  0  0  0  0  0  0  0  0  0  0  0
    6.4200  -13.4904   -6.2491 H   0  0  0  0  0  0  0  0  0  0  0  0
    5.1756  -11.8255   -5.0353 H   0  0  0  0  0  0  0  0  0  0  0  0
    3.9240   -9.7672   -4.5658 H   0  0  0  0  0  0  0  0  0  0  0  0
    1.0846   -4.5138   -8.6173 H   0  0  0  0  0  0  0  0  0  0  0  0
  1  2  1  0  0  0  0
  1 31  1  0  0  0  0
  1 32  1  0  0  0  0
  2  3  2  0  0  0  0
  2  4  1  0  0  0  0
  4  5  2  0  0  0  0
  4 30  1  0  0  0  0
  5  6  1  0  0  0  0
  5 33  1  0  0  0  0
  6  7  2  0  0  0  0
  6 34  1  0  0  0  0
  7  8  1  0  0  0  0
  7 29  1  0  0  0  0
  8  9  1  0  0  0  0
  8 35  1  0  0  0  0
  8 36  1  0  0  0  0
  9 10  2  0  0  0  0
  9 11  1  0  0  0  0
 11 12  1  0  0  0  0
 11 37  1  0  0  0  0
 12 13  1  0  0  0  0
 12 38  1  0  0  0  0
 12 39  1  0  0  0  0
 13 14  2  0  0  0  0
 13 28  1  0  0  0  0
 14 15  1  0  0  0  0
 14 40  1  0  0  0  0
 15 16  2  0  0  0  0
 15 41  1  0  0  0  0
 16 17  1  0  0  0  0
 16 27  1  0  0  0  0
 17 18  2  0  0  0  0
 17 26  1  0  0  0  0
 18 19  1  0  0  0  0
 18 42  1  0  0  0  0
 19 20  2  0  0  0  0
 19 43  1  0  0  0  0
 20 21  1  0  0  0  0
 20 25  1  0  0  0  0
 21 22  2  0  0  0  0
 21 44  1  0  0  0  0
 22 23  1  0  0  0  0
 22 45  1  0  0  0  0
 23 24  2  0  0  0  0
 23 46  1  0  0  0  0
 24 25  1  0  0  0  0
 24 47  1  0  0  0  0
 25 26  2  0  0  0  0
 26 48  1  0  0  0  0
 27 28  2  0  0  0  0
 27 49  1  0  0  0  0
 28 50  1  0  0  0  0
 29 30  2  0  0  0  0
 29 51  1  0  0  0  0
M  END
$$$$
