
 OpenBabel01122422403D

 47 50  0  0  0  0  0  0  0  0999 V2000
    1.1060   -0.3768    1.0819 C   0  0  0  0  0  0  0  0  0  0  0  0
    2.5350   -0.4015    1.0932 O   0  0  0  0  0  0  0  0  0  0  0  0
    3.0756   -1.3520    0.2917 C   0  0  0  0  0  0  0  0  0  0  0  0
    2.4556   -2.1560   -0.3846 O   0  0  0  0  0  0  0  0  0  0  0  0
    4.5637   -1.2906    0.3313 C   0  0  0  0  0  0  0  0  0  0  0  0
    5.2728   -0.3899    1.1292 C   0  0  0  0  0  0  0  0  0  0  0  0
    6.6785   -0.3844    1.1176 C   0  0  0  0  0  0  0  0  0  0  0  0
    7.4189   -1.2526    0.3200 C   0  0  0  0  0  0  0  0  0  0  0  0
    8.7730   -1.2074    0.3247 N   0  0  0  0  0  0  0  0  0  0  0  0
    9.4186   -2.0730   -0.5044 C   0  0  0  0  0  0  0  0  0  0  0  0
   10.9141   -2.0373   -0.5762 C   0  0  0  0  0  0  0  0  0  0  0  0
   11.4607   -2.8287   -1.3420 O   0  0  0  0  0  0  0  0  0  0  0  0
   11.5744   -1.1462    0.2608 N   0  0  0  0  0  0  0  0  0  0  0  0
   12.9831   -0.9931    0.3079 C   0  0  0  0  0  0  0  0  0  0  0  0
   13.8244   -1.4358   -0.7211 C   0  0  0  0  0  0  0  0  0  0  0  0
   15.2142   -1.3236   -0.6323 C   0  0  0  0  0  0  0  0  0  0  0  0
   15.8009   -0.7978    0.5186 C   0  0  0  0  0  0  0  0  0  0  0  0
   17.2207   -0.7538    0.6572 N   0  0  0  0  0  0  0  0  0  0  0  0
   17.8350   -1.3287    1.7651 C   0  0  0  0  0  0  0  0  0  0  0  0
   19.1603   -1.2770    1.9484 C   0  0  0  0  0  0  0  0  0  0  0  0
   19.9891   -0.5817    1.0017 C   0  0  0  0  0  0  0  0  0  0  0  0
   19.4491   -0.0337   -0.0930 C   0  0  0  0  0  0  0  0  0  0  0  0
   17.9791   -0.1180   -0.3454 C   0  0  0  0  0  0  0  0  0  0  0  0
   17.5426    0.4136   -1.3646 O   0  0  0  0  0  0  0  0  0  0  0  0
   14.9658   -0.3333    1.5504 C   0  0  0  0  0  0  0  0  0  0  0  0
   13.5679   -0.3950    1.4267 C   0  0  0  0  0  0  0  0  0  0  0  0
    8.7683   -2.9962   -1.3184 C   0  0  0  0  0  0  0  0  0  0  0  0
    7.3853   -3.0395   -1.3059 C   0  0  0  0  0  0  0  0  0  0  0  0
    6.6847   -2.1587   -0.4856 C   0  0  0  0  0  0  0  0  0  0  0  0
    5.2799   -2.1776   -0.4741 C   0  0  0  0  0  0  0  0  0  0  0  0
    0.7792    0.5078    1.6356 H   0  0  0  0  0  0  0  0  0  0  0  0
    0.7089   -1.2667    1.5796 H   0  0  0  0  0  0  0  0  0  0  0  0
    0.7230   -0.3013    0.0589 H   0  0  0  0  0  0  0  0  0  0  0  0
    4.7489    0.3195    1.7674 H   0  0  0  0  0  0  0  0  0  0  0  0
    7.2074    0.3263    1.7492 H   0  0  0  0  0  0  0  0  0  0  0  0
   10.9999   -0.6690    0.9482 H   0  0  0  0  0  0  0  0  0  0  0  0
   13.4287   -1.8736   -1.6314 H   0  0  0  0  0  0  0  0  0  0  0  0
   15.8270   -1.7003   -1.4464 H   0  0  0  0  0  0  0  0  0  0  0  0
   17.1959   -1.8682    2.4584 H   0  0  0  0  0  0  0  0  0  0  0  0
   19.6309   -1.7536    2.8024 H   0  0  0  0  0  0  0  0  0  0  0  0
   21.0538   -0.5071    1.1977 H   0  0  0  0  0  0  0  0  0  0  0  0
   20.0333    0.5089   -0.8250 H   0  0  0  0  0  0  0  0  0  0  0  0
   15.4051    0.1173    2.4351 H   0  0  0  0  0  0  0  0  0  0  0  0
   12.9575   -0.0034    2.2353 H   0  0  0  0  0  0  0  0  0  0  0  0
    9.3287   -3.6690   -1.9608 H   0  0  0  0  0  0  0  0  0  0  0  0
    6.8705   -3.7535   -1.9444 H   0  0  0  0  0  0  0  0  0  0  0  0
    4.7388   -2.8844   -1.1033 H   0  0  0  0  0  0  0  0  0  0  0  0
  1  2  1  0  0  0  0
  1 31  1  0  0  0  0
  1 32  1  0  0  0  0
  1 33  1  0  0  0  0
  2  3  1  0  0  0  0
  3  4  2  0  0  0  0
  3  5  1  0  0  0  0
  5  6  2  0  0  0  0
  5 30  1  0  0  0  0
  6  7  1  0  0  0  0
  6 34  1  0  0  0  0
  7  8  2  0  0  0  0
  7 35  1  0  0  0  0
  8  9  1  0  0  0  0
  8 29  1  0  0  0  0
  9 10  2  0  0  0  0
 10 11  1  0  0  0  0
 10 27  1  0  0  0  0
 11 12  2  0  0  0  0
 11 13  1  0  0  0  0
 13 14  1  0  0  0  0
 13 36  1  0  0  0  0
 14 15  2  0  0  0  0
 14 26  1  0  0  0  0
 15 16  1  0  0  0  0
 15 37  1  0  0  0  0
 16 17  2  0  0  0  0
 16 38  1  0  0  0  0
 17 18  1  0  0  0  0
 17 25  1  0  0  0  0
 18 19  1  0  0  0  0
 18 23  1  0  0  0  0
 19 20  2  0  0  0  0
 19 39  1  0  0  0  0
 20 21  1  0  0  0  0
 20 40  1  0  0  0  0
 21 22  2  0  0  0  0
 21 41  1  0  0  0  0
 22 23  1  0  0  0  0
 22 42  1  0  0  0  0
 23 24  2  0  0  0  0
 25 26  2  0  0  0  0
 25 43  1  0  0  0  0
 26 44  1  0  0  0  0
 27 28  2  0  0  0  0
 27 45  1  0  0  0  0
 28 29  1  0  0  0  0
 28 46  1  0  0  0  0
 29 30  2  0  0  0  0
 30 47  1  0  0  0  0
M  END
$$$$
