
 OpenBabel01122422353D

 46 49  0  0  0  0  0  0  0  0999 V2000
    3.9466   -0.9339   -1.4499 O   0  0  0  0  0  0  0  0  0  0  0  0
    2.9710   -1.1717   -0.7401 C   0  0  0  0  0  0  0  0  0  0  0  0
    3.0608   -0.8911    0.7545 C   0  0  0  0  0  0  0  0  0  0  0  0
    2.1757   -1.7320    1.6468 C   0  0  0  0  0  0  0  0  0  0  0  0
    2.2730   -3.1317    1.6551 C   0  0  0  0  0  0  0  0  0  0  0  0
    1.4771   -3.8903    2.5173 C   0  0  0  0  0  0  0  0  0  0  0  0
    0.5983   -3.2598    3.3975 C   0  0  0  0  0  0  0  0  0  0  0  0
   -0.0649   -4.0804    4.2731 O   0  0  0  0  0  0  0  0  0  0  0  0
   -0.4898   -3.4333    5.4773 C   0  0  0  0  0  0  0  0  0  0  0  0
   -0.7021   -4.4204    6.6007 C   0  0  0  0  0  0  0  0  0  0  0  0
   -0.4255   -4.0186    7.9203 C   0  0  0  0  0  0  0  0  0  0  0  0
   -0.6493   -4.8871    8.9874 C   0  0  0  0  0  0  0  0  0  0  0  0
   -1.1601   -6.1546    8.7376 C   0  0  0  0  0  0  0  0  0  0  0  0
   -1.3788   -6.9869    9.7620 F   0  0  0  0  0  0  0  0  0  0  0  0
   -1.4532   -6.5667    7.4423 C   0  0  0  0  0  0  0  0  0  0  0  0
   -1.2288   -5.6993    6.3721 C   0  0  0  0  0  0  0  0  0  0  0  0
    0.4599   -1.8712    3.3535 C   0  0  0  0  0  0  0  0  0  0  0  0
    1.2536   -1.1108    2.4956 C   0  0  0  0  0  0  0  0  0  0  0  0
    1.7324   -1.6195   -1.1621 N   0  0  0  0  0  0  0  0  0  0  0  0
    1.4198   -2.0569   -2.4635 C   0  0  0  0  0  0  0  0  0  0  0  0
    2.3804   -2.0159   -3.4025 N   0  0  0  0  0  0  0  0  0  0  0  0
    2.0980   -2.4866   -4.6276 C   0  0  0  0  0  0  0  0  0  0  0  0
    0.8741   -3.0206   -4.9693 C   0  0  0  0  0  0  0  0  0  0  0  0
   -0.1300   -3.0594   -4.0246 C   0  0  0  0  0  0  0  0  0  0  0  0
   -1.3159   -3.5738   -4.3821 N   0  0  0  0  0  0  0  0  0  0  0  0
   -2.2817   -3.5912   -3.4521 C   0  0  0  0  0  0  0  0  0  0  0  0
   -2.1723   -3.1404   -2.1990 N   0  0  0  0  0  0  0  0  0  0  0  0
   -0.9660   -2.6368   -1.8736 C   0  0  0  0  0  0  0  0  0  0  0  0
    0.1275   -2.5628   -2.7429 C   0  0  0  0  0  0  0  0  0  0  0  0
    2.8388    0.1741    0.8921 H   0  0  0  0  0  0  0  0  0  0  0  0
    4.0991   -1.0488    1.0715 H   0  0  0  0  0  0  0  0  0  0  0  0
    2.9796   -3.6424    1.0018 H   0  0  0  0  0  0  0  0  0  0  0  0
    1.5710   -4.9740    2.5280 H   0  0  0  0  0  0  0  0  0  0  0  0
   -1.4348   -2.9081    5.2939 H   0  0  0  0  0  0  0  0  0  0  0  0
    0.2746   -2.7181    5.8087 H   0  0  0  0  0  0  0  0  0  0  0  0
   -0.0311   -3.0253    8.1238 H   0  0  0  0  0  0  0  0  0  0  0  0
   -0.4322   -4.5826   10.0055 H   0  0  0  0  0  0  0  0  0  0  0  0
   -1.8556   -7.5611    7.2750 H   0  0  0  0  0  0  0  0  0  0  0  0
   -1.4632   -6.0258    5.3604 H   0  0  0  0  0  0  0  0  0  0  0  0
   -0.2446   -1.3488    3.9930 H   0  0  0  0  0  0  0  0  0  0  0  0
    1.1572   -0.0266    2.5159 H   0  0  0  0  0  0  0  0  0  0  0  0
    1.0238   -1.7232   -0.4538 H   0  0  0  0  0  0  0  0  0  0  0  0
    2.9094   -2.4236   -5.3471 H   0  0  0  0  0  0  0  0  0  0  0  0
    0.7030   -3.4007   -5.9696 H   0  0  0  0  0  0  0  0  0  0  0  0
   -3.2391   -4.0078   -3.7457 H   0  0  0  0  0  0  0  0  0  0  0  0
   -0.9175   -2.2756   -0.8509 H   0  0  0  0  0  0  0  0  0  0  0  0
  1  2  2  0  0  0  0
  2  3  1  0  0  0  0
  2 19  1  0  0  0  0
  3  4  1  0  0  0  0
  3 30  1  0  0  0  0
  3 31  1  0  0  0  0
  4  5  2  0  0  0  0
  4 18  1  0  0  0  0
  5  6  1  0  0  0  0
  5 32  1  0  0  0  0
  6  7  2  0  0  0  0
  6 33  1  0  0  0  0
  7  8  1  0  0  0  0
  7 17  1  0  0  0  0
  8  9  1  0  0  0  0
  9 10  1  0  0  0  0
  9 34  1  0  0  0  0
  9 35  1  0  0  0  0
 10 11  2  0  0  0  0
 10 16  1  0  0  0  0
 11 12  1  0  0  0  0
 11 36  1  0  0  0  0
 12 13  2  0  0  0  0
 12 37  1  0  0  0  0
 13 14  1  0  0  0  0
 13 15  1  0  0  0  0
 15 16  2  0  0  0  0
 15 38  1  0  0  0  0
 16 39  1  0  0  0  0
 17 18  2  0  0  0  0
 17 40  1  0  0  0  0
 18 41  1  0  0  0  0
 19 20  1  0  0  0  0
 19 42  1  0  0  0  0
 20 21  2  0  0  0  0
 20 29  1  0  0  0  0
 21 22  1  0  0  0  0
 22 23  2  0  0  0  0
 22 43  1  0  0  0  0
 23 24  1  0  0  0  0
 23 44  1  0  0  0  0
 24 25  2  0  0  0  0
 24 29  1  0  0  0  0
 25 26  1  0  0  0  0
 26 27  2  0  0  0  0
 26 45  1  0  0  0  0
 27 28  1  0  0  0  0
 28 29  2  0  0  0  0
 28 46  1  0  0  0  0
M  END
$$$$
