
 OpenBabel01122422403D

 45 48  0  0  0  0  0  0  0  0999 V2000
    1.1666   -0.7078    0.5315 O   0  0  0  0  0  0  0  0  0  0  0  0
    2.2463   -0.2596    0.1738 C   0  0  0  0  0  0  0  0  0  0  0  0
    2.7710    0.9948    0.4166 N   0  0  0  0  0  0  0  0  0  0  0  0
    2.2214    2.0185    1.1979 C   0  0  0  0  0  0  0  0  0  0  0  0
    1.1104    1.8528    2.0206 C   0  0  0  0  0  0  0  0  0  0  0  0
    0.6263    2.9315    2.7623 C   0  0  0  0  0  0  0  0  0  0  0  0
    1.2553    4.1745    2.6986 C   0  0  0  0  0  0  0  0  0  0  0  0
    0.7070    5.1451    3.4888 O   0  0  0  0  0  0  0  0  0  0  0  0
    1.5693    6.2387    3.8194 C   0  0  0  0  0  0  0  0  0  0  0  0
    1.0884    6.8998    5.0820 C   0  0  0  0  0  0  0  0  0  0  0  0
   -0.2826    7.0015    5.3863 C   0  0  0  0  0  0  0  0  0  0  0  0
   -0.7006    7.6212    6.5705 C   0  0  0  0  0  0  0  0  0  0  0  0
    0.2390    8.1587    7.4502 C   0  0  0  0  0  0  0  0  0  0  0  0
    1.6017    8.0685    7.1555 C   0  0  0  0  0  0  0  0  0  0  0  0
    2.0172    7.4439    5.9653 C   0  0  0  0  0  0  0  0  0  0  0  0
    3.3212    7.3905    5.6871 F   0  0  0  0  0  0  0  0  0  0  0  0
    2.3544    4.3495    1.8596 C   0  0  0  0  0  0  0  0  0  0  0  0
    2.8450    3.2698    1.1223 C   0  0  0  0  0  0  0  0  0  0  0  0
    3.1090   -1.0867   -0.7085 C   0  0  0  0  0  0  0  0  0  0  0  0
    4.5102   -0.9781   -0.6189 C   0  0  0  0  0  0  0  0  0  0  0  0
    5.3166   -1.5937   -1.5647 C   0  0  0  0  0  0  0  0  0  0  0  0
    4.7154   -2.4014   -2.5213 C   0  0  0  0  0  0  0  0  0  0  0  0
    5.5453   -3.1434   -3.4682 C   0  0  0  0  0  0  0  0  0  0  0  0
    6.6165   -2.6974   -3.8550 O   0  0  0  0  0  0  0  0  0  0  0  0
    5.0354   -4.3779   -3.7443 N   0  0  0  0  0  0  0  0  0  0  0  0
    3.7065   -4.7036   -3.7593 N   0  0  0  0  0  0  0  0  0  0  0  0
    2.8896   -3.8449   -3.2221 C   0  0  0  0  0  0  0  0  0  0  0  0
    3.3496   -2.6673   -2.4860 C   0  0  0  0  0  0  0  0  0  0  0  0
    2.5153   -1.9626   -1.6295 C   0  0  0  0  0  0  0  0  0  0  0  0
    3.6031    1.2533   -0.0980 H   0  0  0  0  0  0  0  0  0  0  0  0
    0.6102    0.8948    2.1164 H   0  0  0  0  0  0  0  0  0  0  0  0
   -0.2386    2.7939    3.4065 H   0  0  0  0  0  0  0  0  0  0  0  0
    1.5677    6.9680    2.9999 H   0  0  0  0  0  0  0  0  0  0  0  0
    2.5889    5.8729    3.9902 H   0  0  0  0  0  0  0  0  0  0  0  0
   -1.0295    6.6102    4.7020 H   0  0  0  0  0  0  0  0  0  0  0  0
   -1.7587    7.6965    6.7936 H   0  0  0  0  0  0  0  0  0  0  0  0
   -0.0809    8.6137    8.3908 H   0  0  0  0  0  0  0  0  0  0  0  0
    2.3535    8.4639    7.8275 H   0  0  0  0  0  0  0  0  0  0  0  0
    2.8439    5.3114    1.7511 H   0  0  0  0  0  0  0  0  0  0  0  0
    3.7123    3.4307    0.4889 H   0  0  0  0  0  0  0  0  0  0  0  0
    4.9832   -0.4237    0.1886 H   0  0  0  0  0  0  0  0  0  0  0  0
    6.4007   -1.5063   -1.5218 H   0  0  0  0  0  0  0  0  0  0  0  0
    5.7015   -5.1158   -3.9795 H   0  0  0  0  0  0  0  0  0  0  0  0
    1.8015   -4.0525   -3.2510 H   0  0  0  0  0  0  0  0  0  0  0  0
    1.4387   -2.1089   -1.6360 H   0  0  0  0  0  0  0  0  0  0  0  0
  1  2  2  0  0  0  0
  2  3  1  0  0  0  0
  2 19  1  0  0  0  0
  3  4  1  0  0  0  0
  3 30  1  0  0  0  0
  4  5  2  0  0  0  0
  4 18  1  0  0  0  0
  5  6  1  0  0  0  0
  5 31  1  0  0  0  0
  6  7  2  0  0  0  0
  6 32  1  0  0  0  0
  7  8  1  0  0  0  0
  7 17  1  0  0  0  0
  8  9  1  0  0  0  0
  9 10  1  0  0  0  0
  9 33  1  0  0  0  0
  9 34  1  0  0  0  0
 10 11  2  0  0  0  0
 10 15  1  0  0  0  0
 11 12  1  0  0  0  0
 11 35  1  0  0  0  0
 12 13  2  0  0  0  0
 12 36  1  0  0  0  0
 13 14  1  0  0  0  0
 13 37  1  0  0  0  0
 14 15  2  0  0  0  0
 14 38  1  0  0  0  0
 15 16  1  0  0  0  0
 17 18  2  0  0  0  0
 17 39  1  0  0  0  0
 18 40  1  0  0  0  0
 19 20  2  0  0  0  0
 19 29  1  0  0  0  0
 20 21  1  0  0  0  0
 20 41  1  0  0  0  0
 21 22  2  0  0  0  0
 21 42  1  0  0  0  0
 22 23  1  0  0  0  0
 22 28  1  0  0  0  0
 23 24  2  0  0  0  0
 23 25  1  0  0  0  0
 25 26  1  0  0  0  0
 25 43  1  0  0  0  0
 26 27  2  0  0  0  0
 27 28  1  0  0  0  0
 27 44  1  0  0  0  0
 28 29  2  0  0  0  0
 29 45  1  0  0  0  0
M  END
$$$$
