
 OpenBabel01122422403D

 45 48  0  0  0  0  0  0  0  0999 V2000
    1.2220   -0.1288   -0.1225 O   0  0  0  0  0  0  0  0  0  0  0  0
    2.4271    0.0841   -0.0603 C   0  0  0  0  0  0  0  0  0  0  0  0
    3.0901    0.9555   -0.8978 N   0  0  0  0  0  0  0  0  0  0  0  0
    2.3850    1.5577   -2.0065 C   0  0  0  0  0  0  0  0  0  0  0  0
    3.0007    2.8593   -2.3616 C   0  0  0  0  0  0  0  0  0  0  0  0
    2.5169    4.1481   -2.3106 C   0  0  0  0  0  0  0  0  0  0  0  0
    3.5299    4.9778   -2.8385 C   0  0  0  0  0  0  0  0  0  0  0  0
    4.5934    4.1576   -3.1675 C   0  0  0  0  0  0  0  0  0  0  0  0
    5.9262    4.4122   -3.7146 C   0  0  0  0  0  0  0  0  0  0  0  0
    6.8142    3.3711   -4.0097 C   0  0  0  0  0  0  0  0  0  0  0  0
    8.0925    3.6563   -4.4869 C   0  0  0  0  0  0  0  0  0  0  0  0
    8.9345    2.6475   -4.7516 F   0  0  0  0  0  0  0  0  0  0  0  0
    8.5161    4.9642   -4.6876 C   0  0  0  0  0  0  0  0  0  0  0  0
    7.6417    6.0111   -4.4186 C   0  0  0  0  0  0  0  0  0  0  0  0
    6.3566    5.7344   -3.9393 C   0  0  0  0  0  0  0  0  0  0  0  0
    4.2675    2.8565   -2.8767 O   0  0  0  0  0  0  0  0  0  0  0  0
    3.2536   -0.6604    0.9278 C   0  0  0  0  0  0  0  0  0  0  0  0
    2.8184   -1.9314    1.3249 C   0  0  0  0  0  0  0  0  0  0  0  0
    3.5592   -2.6816    2.2442 C   0  0  0  0  0  0  0  0  0  0  0  0
    4.7314   -2.1534    2.7984 C   0  0  0  0  0  0  0  0  0  0  0  0
    5.5536   -2.9138    3.7872 C   0  0  0  0  0  0  0  0  0  0  0  0
    6.8372   -2.7086    3.8338 N   0  0  0  0  0  0  0  0  0  0  0  0
    7.5488   -3.4224    4.7569 N   0  0  0  0  0  0  0  0  0  0  0  0
    7.0326   -4.3289    5.6440 C   0  0  0  0  0  0  0  0  0  0  0  0
    7.7121   -4.9422    6.4586 O   0  0  0  0  0  0  0  0  0  0  0  0
    5.5737   -4.5306    5.5763 C   0  0  0  0  0  0  0  0  0  0  0  0
    4.8406   -3.8553    4.6887 C   0  0  0  0  0  0  0  0  0  0  0  0
    5.1609   -0.8763    2.4041 C   0  0  0  0  0  0  0  0  0  0  0  0
    4.4243   -0.1284    1.4765 C   0  0  0  0  0  0  0  0  0  0  0  0
    4.0976    0.9115   -0.9714 H   0  0  0  0  0  0  0  0  0  0  0  0
    1.3315    1.7013   -1.7426 H   0  0  0  0  0  0  0  0  0  0  0  0
    2.4281    0.8626   -2.8526 H   0  0  0  0  0  0  0  0  0  0  0  0
    1.5408    4.4467   -1.9500 H   0  0  0  0  0  0  0  0  0  0  0  0
    3.4876    6.0504   -2.9602 H   0  0  0  0  0  0  0  0  0  0  0  0
    6.5309    2.3328   -3.8689 H   0  0  0  0  0  0  0  0  0  0  0  0
    9.5213    5.1569   -5.0487 H   0  0  0  0  0  0  0  0  0  0  0  0
    7.9561    7.0402   -4.5742 H   0  0  0  0  0  0  0  0  0  0  0  0
    5.6966    6.5743   -3.7333 H   0  0  0  0  0  0  0  0  0  0  0  0
    1.9022   -2.3477    0.9078 H   0  0  0  0  0  0  0  0  0  0  0  0
    3.2100   -3.6798    2.4913 H   0  0  0  0  0  0  0  0  0  0  0  0
    8.5497   -3.2624    4.7814 H   0  0  0  0  0  0  0  0  0  0  0  0
    5.1454   -5.2299    6.2811 H   0  0  0  0  0  0  0  0  0  0  0  0
    3.7671   -3.9675    4.6485 H   0  0  0  0  0  0  0  0  0  0  0  0
    6.0692   -0.4501    2.8279 H   0  0  0  0  0  0  0  0  0  0  0  0
    4.7626    0.8712    1.2164 H   0  0  0  0  0  0  0  0  0  0  0  0
  1  2  2  0  0  0  0
  2  3  1  0  0  0  0
  2 17  1  0  0  0  0
  3  4  1  0  0  0  0
  3 30  1  0  0  0  0
  4  5  1  0  0  0  0
  4 31  1  0  0  0  0
  4 32  1  0  0  0  0
  5  6  2  0  0  0  0
  5 16  1  0  0  0  0
  6  7  1  0  0  0  0
  6 33  1  0  0  0  0
  7  8  2  0  0  0  0
  7 34  1  0  0  0  0
  8  9  1  0  0  0  0
  8 16  1  0  0  0  0
  9 10  2  0  0  0  0
  9 15  1  0  0  0  0
 10 11  1  0  0  0  0
 10 35  1  0  0  0  0
 11 12  1  0  0  0  0
 11 13  2  0  0  0  0
 13 14  1  0  0  0  0
 13 36  1  0  0  0  0
 14 15  2  0  0  0  0
 14 37  1  0  0  0  0
 15 38  1  0  0  0  0
 17 18  2  0  0  0  0
 17 29  1  0  0  0  0
 18 19  1  0  0  0  0
 18 39  1  0  0  0  0
 19 20  2  0  0  0  0
 19 40  1  0  0  0  0
 20 21  1  0  0  0  0
 20 28  1  0  0  0  0
 21 22  2  0  0  0  0
 21 27  1  0  0  0  0
 22 23  1  0  0  0  0
 23 24  1  0  0  0  0
 23 41  1  0  0  0  0
 24 25  2  0  0  0  0
 24 26  1  0  0  0  0
 26 27  2  0  0  0  0
 26 42  1  0  0  0  0
 27 43  1  0  0  0  0
 28 29  2  0  0  0  0
 28 44  1  0  0  0  0
 29 45  1  0  0  0  0
M  END
$$$$
