
 OpenBabel01122422403D

 54 57  0  0  0  0  0  0  0  0999 V2000
    7.4009    9.1614    2.2802 N   0  0  0  0  0  0  0  0  0  0  0  0
    7.4869    8.9890    1.0340 C   0  0  0  0  0  0  0  0  0  0  0  0
    7.5905    8.7812   -0.4681 C   0  0  0  0  0  0  0  0  0  0  0  0
    6.6766    7.7756   -1.0060 N   0  0  0  0  0  0  0  0  0  0  0  0
    5.6421    7.1927   -0.3061 C   0  0  0  0  0  0  0  0  0  0  0  0
    5.2702    6.0376   -0.9657 C   0  0  0  0  0  0  0  0  0  0  0  0
    4.4583    4.9291   -0.4676 C   0  0  0  0  0  0  0  0  0  0  0  0
    4.7848    3.7876   -0.7911 O   0  0  0  0  0  0  0  0  0  0  0  0
    3.3581    5.1404    0.3949 N   0  0  0  0  0  0  0  0  0  0  0  0
    2.7823    3.9059    0.9638 C   0  0  0  0  0  0  0  0  0  0  0  0
    2.9772    3.6159    2.4620 C   0  0  0  0  0  0  0  0  0  0  0  0
    3.9404    4.3067    3.1326 N   0  0  0  0  0  0  0  0  0  0  0  0
    2.3368    2.7477    3.0512 O   0  0  0  0  0  0  0  0  0  0  0  0
    2.7986    6.4757    0.7113 C   0  0  0  0  0  0  0  0  0  0  0  0
    1.3104    6.6723    0.9753 C   0  0  0  0  0  0  0  0  0  0  0  0
    0.5536    5.8506    1.8047 C   0  0  0  0  0  0  0  0  0  0  0  0
   -0.8190    6.0398    1.9833 C   0  0  0  0  0  0  0  0  0  0  0  0
   -1.4992    7.1457    1.4542 C   0  0  0  0  0  0  0  0  0  0  0  0
   -2.9579    7.3166    1.6916 C   0  0  0  0  0  0  0  0  0  0  0  0
   -3.5933    6.7240    2.8043 C   0  0  0  0  0  0  0  0  0  0  0  0
   -4.9718    6.8216    3.0142 C   0  0  0  0  0  0  0  0  0  0  0  0
   -5.7567    7.5423    2.1254 C   0  0  0  0  0  0  0  0  0  0  0  0
   -5.1615    8.1577    1.0285 C   0  0  0  0  0  0  0  0  0  0  0  0
   -3.7820    8.0376    0.8102 C   0  0  0  0  0  0  0  0  0  0  0  0
   -0.7154    8.0476    0.7225 C   0  0  0  0  0  0  0  0  0  0  0  0
    0.6552    7.8118    0.4757 C   0  0  0  0  0  0  0  0  0  0  0  0
    5.9566    6.0612   -2.2329 C   0  0  0  0  0  0  0  0  0  0  0  0
    5.9590    5.2042   -3.3565 C   0  0  0  0  0  0  0  0  0  0  0  0
    6.7009    5.5326   -4.4913 C   0  0  0  0  0  0  0  0  0  0  0  0
    7.4560    6.6977   -4.5190 C   0  0  0  0  0  0  0  0  0  0  0  0
    7.5336    7.5381   -3.4007 C   0  0  0  0  0  0  0  0  0  0  0  0
    6.7725    7.2009   -2.2617 C   0  0  0  0  0  0  0  0  0  0  0  0
    8.6084    8.4677   -0.7228 H   0  0  0  0  0  0  0  0  0  0  0  0
    7.3596    9.7190   -0.9844 H   0  0  0  0  0  0  0  0  0  0  0  0
    5.3435    7.5775    0.6578 H   0  0  0  0  0  0  0  0  0  0  0  0
    3.2008    3.0202    0.4680 H   0  0  0  0  0  0  0  0  0  0  0  0
    1.7225    3.8755    0.7013 H   0  0  0  0  0  0  0  0  0  0  0  0
    4.5739    4.9429    2.6738 H   0  0  0  0  0  0  0  0  0  0  0  0
    4.1176    4.0381    4.0940 H   0  0  0  0  0  0  0  0  0  0  0  0
    3.0319    7.1155   -0.1485 H   0  0  0  0  0  0  0  0  0  0  0  0
    3.3482    6.8723    1.5726 H   0  0  0  0  0  0  0  0  0  0  0  0
    0.9805    5.0237    2.3511 H   0  0  0  0  0  0  0  0  0  0  0  0
   -1.3447    5.2769    2.5531 H   0  0  0  0  0  0  0  0  0  0  0  0
   -3.0208    6.1655    3.5411 H   0  0  0  0  0  0  0  0  0  0  0  0
   -5.4227    6.3303    3.8724 H   0  0  0  0  0  0  0  0  0  0  0  0
   -6.8278    7.6220    2.2873 H   0  0  0  0  0  0  0  0  0  0  0  0
   -5.7732    8.7234    0.3306 H   0  0  0  0  0  0  0  0  0  0  0  0
   -3.3668    8.5107   -0.0766 H   0  0  0  0  0  0  0  0  0  0  0  0
   -1.1519    8.9671    0.3352 H   0  0  0  0  0  0  0  0  0  0  0  0
    1.2048    8.5557   -0.1006 H   0  0  0  0  0  0  0  0  0  0  0  0
    5.3725    4.2842   -3.3393 H   0  0  0  0  0  0  0  0  0  0  0  0
    6.6683    4.8741   -5.3646 H   0  0  0  0  0  0  0  0  0  0  0  0
    8.0104    6.9462   -5.4229 H   0  0  0  0  0  0  0  0  0  0  0  0
    8.1528    8.4258   -3.4349 H   0  0  0  0  0  0  0  0  0  0  0  0
  1  2  3  0  0  0  0
  2  3  1  0  0  0  0
  3  4  1  0  0  0  0
  3 33  1  0  0  0  0
  3 34  1  0  0  0  0
  4  5  1  0  0  0  0
  4 32  1  0  0  0  0
  5  6  2  0  0  0  0
  5 35  1  0  0  0  0
  6  7  1  0  0  0  0
  6 27  1  0  0  0  0
  7  8  2  0  0  0  0
  7  9  1  0  0  0  0
  9 10  1  0  0  0  0
  9 14  1  0  0  0  0
 10 11  1  0  0  0  0
 10 36  1  0  0  0  0
 10 37  1  0  0  0  0
 11 12  1  0  0  0  0
 11 13  2  0  0  0  0
 12 38  1  0  0  0  0
 12 39  1  0  0  0  0
 14 15  1  0  0  0  0
 14 40  1  0  0  0  0
 14 41  1  0  0  0  0
 15 16  2  0  0  0  0
 15 26  1  0  0  0  0
 16 17  1  0  0  0  0
 16 42  1  0  0  0  0
 17 18  2  0  0  0  0
 17 43  1  0  0  0  0
 18 19  1  0  0  0  0
 18 25  1  0  0  0  0
 19 20  2  0  0  0  0
 19 24  1  0  0  0  0
 20 21  1  0  0  0  0
 20 44  1  0  0  0  0
 21 22  2  0  0  0  0
 21 45  1  0  0  0  0
 22 23  1  0  0  0  0
 22 46  1  0  0  0  0
 23 24  2  0  0  0  0
 23 47  1  0  0  0  0
 24 48  1  0  0  0  0
 25 26  2  0  0  0  0
 25 49  1  0  0  0  0
 26 50  1  0  0  0  0
 27 28  2  0  0  0  0
 27 32  1  0  0  0  0
 28 29  1  0  0  0  0
 28 51  1  0  0  0  0
 29 30  2  0  0  0  0
 29 52  1  0  0  0  0
 30 31  1  0  0  0  0
 30 53  1  0  0  0  0
 31 32  2  0  0  0  0
 31 54  1  0  0  0  0
M  END
$$$$
