
 OpenBabel01122422403D

 51 54  0  0  1  0  0  0  0  0999 V2000
    0.9895    0.0265    0.0950 O   0  0  0  0  0  0  0  0  0  0  0  0
    2.2123    0.1351    0.0477 C   0  0  0  0  0  0  0  0  0  0  0  0
    2.9275    0.7143    1.0663 N   0  0  0  0  0  0  0  0  0  0  0  0
    2.2297    1.1860    2.2608 C   0  0  0  0  0  0  0  0  0  0  0  0
    2.1411    0.0927    3.3507 C   0  0  3  0  0  0  0  0  0  0  0  0
    3.4858   -0.2821    3.6990 O   0  0  0  0  0  0  0  0  0  0  0  0
    1.3550    0.5399    4.5750 C   0  0  0  0  0  0  0  0  0  0  0  0
    1.9239    0.5952    5.8544 C   0  0  0  0  0  0  0  0  0  0  0  0
    1.1728    1.0093    6.9601 C   0  0  0  0  0  0  0  0  0  0  0  0
   -0.1743    1.3687    6.8224 C   0  0  0  0  0  0  0  0  0  0  0  0
   -0.9353    1.7889    7.9257 C   0  0  0  0  0  0  0  0  0  0  0  0
   -2.2785    2.1355    7.7753 C   0  0  0  0  0  0  0  0  0  0  0  0
   -2.8774    2.0616    6.5211 C   0  0  0  0  0  0  0  0  0  0  0  0
   -2.1327    1.6442    5.4157 C   0  0  0  0  0  0  0  0  0  0  0  0
   -0.7767    1.2971    5.5489 C   0  0  0  0  0  0  0  0  0  0  0  0
   -0.0062    0.8786    4.4452 C   0  0  0  0  0  0  0  0  0  0  0  0
    2.9962   -0.2379   -1.0164 N   0  0  0  0  0  0  0  0  0  0  0  0
    2.5440   -0.6391   -2.2638 C   0  0  0  0  0  0  0  0  0  0  0  0
    1.3559   -0.3128   -2.7833 C   0  0  0  0  0  0  0  0  0  0  0  0
    1.0093   -0.6491   -4.1423 C   0  0  0  0  0  0  0  0  0  0  0  0
    1.8459   -1.3726   -4.8868 C   0  0  0  0  0  0  0  0  0  0  0  0
    3.0466   -1.8469   -4.3783 N   0  0  0  0  0  0  0  0  0  0  0  0
    3.8560   -2.7381   -5.1412 C   0  0  0  0  0  0  0  0  0  0  0  0
    4.1674   -4.0080   -4.6348 C   0  0  0  0  0  0  0  0  0  0  0  0
    4.9893   -4.8752   -5.3578 C   0  0  0  0  0  0  0  0  0  0  0  0
    5.5219   -4.4707   -6.5800 C   0  0  0  0  0  0  0  0  0  0  0  0
    5.2005   -3.2161   -7.0993 C   0  0  0  0  0  0  0  0  0  0  0  0
    4.3495   -2.3596   -6.3941 C   0  0  0  0  0  0  0  0  0  0  0  0
    3.4949   -1.4776   -3.0932 C   0  0  0  0  0  0  0  0  0  0  0  0
    4.5872   -1.7738   -2.5978 O   0  0  0  0  0  0  0  0  0  0  0  0
    3.8797    0.4022    1.1947 H   0  0  0  0  0  0  0  0  0  0  0  0
    1.2361    1.5463    1.9759 H   0  0  0  0  0  0  0  0  0  0  0  0
    2.8020    2.0453    2.6300 H   0  0  0  0  0  0  0  0  0  0  0  0
    1.6666   -0.8096    2.9484 H   0  0  0  0  0  0  0  0  0  0  0  0
    3.9480    0.5343    3.9545 H   0  0  0  0  0  0  0  0  0  0  0  0
    2.9579    0.3018    6.0199 H   0  0  0  0  0  0  0  0  0  0  0  0
    1.6506    1.0393    7.9371 H   0  0  0  0  0  0  0  0  0  0  0  0
   -0.4849    1.8485    8.9141 H   0  0  0  0  0  0  0  0  0  0  0  0
   -2.8557    2.4599    8.6371 H   0  0  0  0  0  0  0  0  0  0  0  0
   -3.9244    2.3275    6.4026 H   0  0  0  0  0  0  0  0  0  0  0  0
   -2.6209    1.5912    4.4450 H   0  0  0  0  0  0  0  0  0  0  0  0
   -0.4830    0.8072    3.4675 H   0  0  0  0  0  0  0  0  0  0  0  0
    3.9879   -0.3808   -0.8593 H   0  0  0  0  0  0  0  0  0  0  0  0
    0.6262    0.2645   -2.2289 H   0  0  0  0  0  0  0  0  0  0  0  0
    0.0632   -0.2896   -4.5307 H   0  0  0  0  0  0  0  0  0  0  0  0
    1.5899   -1.6520   -5.9044 H   0  0  0  0  0  0  0  0  0  0  0  0
    3.7549   -4.3357   -3.6840 H   0  0  0  0  0  0  0  0  0  0  0  0
    5.2239   -5.8586   -4.9585 H   0  0  0  0  0  0  0  0  0  0  0  0
    6.1934   -5.1302   -7.1244 H   0  0  0  0  0  0  0  0  0  0  0  0
    5.6316   -2.8956   -8.0445 H   0  0  0  0  0  0  0  0  0  0  0  0
    4.1330   -1.3748   -6.7972 H   0  0  0  0  0  0  0  0  0  0  0  0
  1  2  2  0  0  0  0
  2  3  1  0  0  0  0
  2 17  1  0  0  0  0
  3  4  1  0  0  0  0
  3 31  1  0  0  0  0
  4  5  1  0  0  0  0
  4 32  1  0  0  0  0
  4 33  1  0  0  0  0
  5  6  1  0  0  0  0
  5  7  1  0  0  0  0
  5 34  1  0  0  0  0
  6 35  1  0  0  0  0
  7  8  2  0  0  0  0
  7 16  1  0  0  0  0
  8  9  1  0  0  0  0
  8 36  1  0  0  0  0
  9 10  2  0  0  0  0
  9 37  1  0  0  0  0
 10 11  1  0  0  0  0
 10 15  1  0  0  0  0
 11 12  2  0  0  0  0
 11 38  1  0  0  0  0
 12 13  1  0  0  0  0
 12 39  1  0  0  0  0
 13 14  2  0  0  0  0
 13 40  1  0  0  0  0
 14 15  1  0  0  0  0
 14 41  1  0  0  0  0
 15 16  2  0  0  0  0
 16 42  1  0  0  0  0
 17 18  1  0  0  0  0
 17 43  1  0  0  0  0
 18 19  2  0  0  0  0
 18 29  1  0  0  0  0
 19 20  1  0  0  0  0
 19 44  1  0  0  0  0
 20 21  2  0  0  0  0
 20 45  1  0  0  0  0
 21 22  1  0  0  0  0
 21 46  1  0  0  0  0
 22 23  1  0  0  0  0
 22 29  1  0  0  0  0
 23 24  2  0  0  0  0
 23 28  1  0  0  0  0
 24 25  1  0  0  0  0
 24 47  1  0  0  0  0
 25 26  2  0  0  0  0
 25 48  1  0  0  0  0
 26 27  1  0  0  0  0
 26 49  1  0  0  0  0
 27 28  2  0  0  0  0
 27 50  1  0  0  0  0
 28 51  1  0  0  0  0
 29 30  2  0  0  0  0
M  END
$$$$
