
 OpenBabel01122422403D

 52 55  0  0  0  0  0  0  0  0999 V2000
    1.8771    0.5560    1.9484 C   0  0  0  0  0  0  0  0  0  0  0  0
    2.9180   -0.3234    1.3339 C   0  0  0  0  0  0  0  0  0  0  0  0
    4.2376   -0.0507    1.3667 C   0  0  0  0  0  0  0  0  0  0  0  0
    5.1284   -0.9085    0.7296 N   0  0  0  0  0  0  0  0  0  0  0  0
    6.4887   -0.8154    0.6097 C   0  0  0  0  0  0  0  0  0  0  0  0
    6.8751   -1.9052   -0.1441 C   0  0  0  0  0  0  0  0  0  0  0  0
    8.2378   -2.3151   -0.5898 C   0  0  0  0  0  0  0  0  0  0  0  0
    9.2534   -1.4482   -0.0697 O   0  0  0  0  0  0  0  0  0  0  0  0
   10.5290   -1.9470   -0.0392 C   0  0  0  0  0  0  0  0  0  0  0  0
   10.9464   -3.0145   -0.8500 C   0  0  0  0  0  0  0  0  0  0  0  0
   12.2297   -3.5510   -0.7242 C   0  0  0  0  0  0  0  0  0  0  0  0
   13.1225   -3.0103    0.1921 C   0  0  0  0  0  0  0  0  0  0  0  0
   12.7365   -1.9241    0.9716 C   0  0  0  0  0  0  0  0  0  0  0  0
   11.4469   -1.3732    0.8585 C   0  0  0  0  0  0  0  0  0  0  0  0
   11.1401   -0.2426    1.7782 C   0  0  0  0  0  0  0  0  0  0  0  0
   11.7202   -0.1078    2.8463 O   0  0  0  0  0  0  0  0  0  0  0  0
   10.2385    0.6219    1.2587 O   0  0  0  0  0  0  0  0  0  0  0  0
    9.8673    1.7204    2.1036 C   0  0  0  0  0  0  0  0  0  0  0  0
   10.1422    3.0219    1.3996 C   0  0  0  0  0  0  0  0  0  0  0  0
   11.4383    3.3530    0.9829 C   0  0  0  0  0  0  0  0  0  0  0  0
   11.7018    4.5909    0.3839 C   0  0  0  0  0  0  0  0  0  0  0  0
   10.6713    5.5238    0.2067 C   0  0  0  0  0  0  0  0  0  0  0  0
   10.8858    6.8775   -0.3795 C   0  0  0  0  0  0  0  0  0  0  0  0
   12.1638    7.2837   -0.6427 N   0  0  0  0  0  0  0  0  0  0  0  0
    9.9464    7.6325   -0.6019 O   0  0  0  0  0  0  0  0  0  0  0  0
    9.3725    5.1876    0.6074 C   0  0  0  0  0  0  0  0  0  0  0  0
    9.1219    3.9528    1.1978 C   0  0  0  0  0  0  0  0  0  0  0  0
    7.8722    3.6714    1.5948 F   0  0  0  0  0  0  0  0  0  0  0  0
    5.7784   -2.6752   -0.4760 N   0  0  0  0  0  0  0  0  0  0  0  0
    4.7431   -2.0608    0.0555 C   0  0  0  0  0  0  0  0  0  0  0  0
    3.3554   -2.3692    0.0441 C   0  0  0  0  0  0  0  0  0  0  0  0
    2.4806   -1.5411    0.6513 C   0  0  0  0  0  0  0  0  0  0  0  0
    2.3269    1.3537    2.5493 H   0  0  0  0  0  0  0  0  0  0  0  0
    1.2144   -0.0186    2.6031 H   0  0  0  0  0  0  0  0  0  0  0  0
    1.2727    1.0263    1.1658 H   0  0  0  0  0  0  0  0  0  0  0  0
    4.6573    0.8236    1.8485 H   0  0  0  0  0  0  0  0  0  0  0  0
    7.0550   -0.0061    1.0473 H   0  0  0  0  0  0  0  0  0  0  0  0
    8.2699   -2.2862   -1.6857 H   0  0  0  0  0  0  0  0  0  0  0  0
    8.3924   -3.3450   -0.2435 H   0  0  0  0  0  0  0  0  0  0  0  0
   10.2867   -3.4639   -1.5868 H   0  0  0  0  0  0  0  0  0  0  0  0
   12.5238   -4.4000   -1.3376 H   0  0  0  0  0  0  0  0  0  0  0  0
   14.1179   -3.4361    0.3023 H   0  0  0  0  0  0  0  0  0  0  0  0
   13.4459   -1.5078    1.6874 H   0  0  0  0  0  0  0  0  0  0  0  0
   10.3848    1.7298    3.0707 H   0  0  0  0  0  0  0  0  0  0  0  0
    8.7995    1.6091    2.3203 H   0  0  0  0  0  0  0  0  0  0  0  0
   12.2547    2.6473    1.1332 H   0  0  0  0  0  0  0  0  0  0  0  0
   12.7187    4.7957    0.0669 H   0  0  0  0  0  0  0  0  0  0  0  0
   12.9966    6.7850   -0.3744 H   0  0  0  0  0  0  0  0  0  0  0  0
   12.2726    8.2342   -0.9737 H   0  0  0  0  0  0  0  0  0  0  0  0
    8.5500    5.8862    0.4745 H   0  0  0  0  0  0  0  0  0  0  0  0
    3.0307   -3.2749   -0.4565 H   0  0  0  0  0  0  0  0  0  0  0  0
    1.4207   -1.7789    0.6496 H   0  0  0  0  0  0  0  0  0  0  0  0
  1  2  1  0  0  0  0
  1 33  1  0  0  0  0
  1 34  1  0  0  0  0
  1 35  1  0  0  0  0
  2  3  2  0  0  0  0
  2 32  1  0  0  0  0
  3  4  1  0  0  0  0
  3 36  1  0  0  0  0
  4  5  1  0  0  0  0
  4 30  1  0  0  0  0
  5  6  2  0  0  0  0
  5 37  1  0  0  0  0
  6  7  1  0  0  0  0
  6 29  1  0  0  0  0
  7  8  1  0  0  0  0
  7 38  1  0  0  0  0
  7 39  1  0  0  0  0
  8  9  1  0  0  0  0
  9 10  2  0  0  0  0
  9 14  1  0  0  0  0
 10 11  1  0  0  0  0
 10 40  1  0  0  0  0
 11 12  2  0  0  0  0
 11 41  1  0  0  0  0
 12 13  1  0  0  0  0
 12 42  1  0  0  0  0
 13 14  2  0  0  0  0
 13 43  1  0  0  0  0
 14 15  1  0  0  0  0
 15 16  2  0  0  0  0
 15 17  1  0  0  0  0
 17 18  1  0  0  0  0
 18 19  1  0  0  0  0
 18 44  1  0  0  0  0
 18 45  1  0  0  0  0
 19 20  2  0  0  0  0
 19 27  1  0  0  0  0
 20 21  1  0  0  0  0
 20 46  1  0  0  0  0
 21 22  2  0  0  0  0
 21 47  1  0  0  0  0
 22 23  1  0  0  0  0
 22 26  1  0  0  0  0
 23 24  1  0  0  0  0
 23 25  2  0  0  0  0
 24 48  1  0  0  0  0
 24 49  1  0  0  0  0
 26 27  2  0  0  0  0
 26 50  1  0  0  0  0
 27 28  1  0  0  0  0
 29 30  2  0  0  0  0
 30 31  1  0  0  0  0
 31 32  2  0  0  0  0
 31 51  1  0  0  0  0
 32 52  1  0  0  0  0
M  END
$$$$
