
 OpenBabel01122422403D

 42 45  0  0  0  0  0  0  0  0999 V2000
    0.9678   -0.0761   -0.3877 O   0  0  0  0  0  0  0  0  0  0  0  0
    2.1802    0.1128   -0.3085 C   0  0  0  0  0  0  0  0  0  0  0  0
    2.7612    1.3039    0.0464 N   0  0  0  0  0  0  0  0  0  0  0  0
    2.0492    2.4373    0.3532 C   0  0  0  0  0  0  0  0  0  0  0  0
    0.7490    2.6669    0.1662 N   0  0  0  0  0  0  0  0  0  0  0  0
    0.5605    3.8710    0.7414 N   0  0  0  0  0  0  0  0  0  0  0  0
   -0.7231    4.4743    0.8321 C   0  0  0  0  0  0  0  0  0  0  0  0
   -1.8217    3.8796    0.1917 C   0  0  0  0  0  0  0  0  0  0  0  0
   -3.0822    4.4701    0.2875 C   0  0  0  0  0  0  0  0  0  0  0  0
   -4.1255    3.9065   -0.3356 F   0  0  0  0  0  0  0  0  0  0  0  0
   -3.2798    5.6343    1.0167 C   0  0  0  0  0  0  0  0  0  0  0  0
   -2.1909    6.2127    1.6518 C   0  0  0  0  0  0  0  0  0  0  0  0
   -2.3649    7.3294    2.3690 F   0  0  0  0  0  0  0  0  0  0  0  0
   -0.9162    5.6555    1.5661 C   0  0  0  0  0  0  0  0  0  0  0  0
    1.7691    4.3381    1.1959 C   0  0  0  0  0  0  0  0  0  0  0  0
    2.7234    3.4722    0.9368 N   0  0  0  0  0  0  0  0  0  0  0  0
    3.0728   -1.0545   -0.6194 C   0  0  0  0  0  0  0  0  0  0  0  0
    2.4066   -2.2523   -0.9507 C   0  0  0  0  0  0  0  0  0  0  0  0
    3.1000   -3.4123   -1.3102 C   0  0  0  0  0  0  0  0  0  0  0  0
    4.4786   -3.3782   -1.4229 C   0  0  0  0  0  0  0  0  0  0  0  0
    5.1596   -2.1976   -1.1254 C   0  0  0  0  0  0  0  0  0  0  0  0
    4.4834   -1.0676   -0.6189 C   0  0  0  0  0  0  0  0  0  0  0  0
    5.2080   -0.0014   -0.0959 O   0  0  0  0  0  0  0  0  0  0  0  0
    6.4019   -0.3093    0.5448 C   0  0  0  0  0  0  0  0  0  0  0  0
    7.5005    0.5108    0.3024 C   0  0  0  0  0  0  0  0  0  0  0  0
    8.7262    0.1168    0.8186 C   0  0  0  0  0  0  0  0  0  0  0  0
    8.9155   -1.0117    1.5373 N   0  0  0  0  0  0  0  0  0  0  0  0
    7.8232   -1.7564    1.8019 C   0  0  0  0  0  0  0  0  0  0  0  0
    6.5517   -1.4249    1.3725 C   0  0  0  0  0  0  0  0  0  0  0  0
    3.7553    1.3759    0.2051 H   0  0  0  0  0  0  0  0  0  0  0  0
   -1.7196    2.9663   -0.3909 H   0  0  0  0  0  0  0  0  0  0  0  0
   -4.2645    6.0812    1.0896 H   0  0  0  0  0  0  0  0  0  0  0  0
   -0.1159    6.1561    2.0992 H   0  0  0  0  0  0  0  0  0  0  0  0
    1.8983    5.2880    1.6920 H   0  0  0  0  0  0  0  0  0  0  0  0
    1.3218   -2.2960   -0.9270 H   0  0  0  0  0  0  0  0  0  0  0  0
    2.5508   -4.3259   -1.5185 H   0  0  0  0  0  0  0  0  0  0  0  0
    5.0272   -4.2659   -1.7212 H   0  0  0  0  0  0  0  0  0  0  0  0
    6.2449   -2.2014   -1.2371 H   0  0  0  0  0  0  0  0  0  0  0  0
    7.4215    1.4097   -0.2976 H   0  0  0  0  0  0  0  0  0  0  0  0
    9.6235    0.7038    0.6490 H   0  0  0  0  0  0  0  0  0  0  0  0
    8.0032   -2.6694    2.3628 H   0  0  0  0  0  0  0  0  0  0  0  0
    5.7170   -2.0717    1.6177 H   0  0  0  0  0  0  0  0  0  0  0  0
  1  2  2  0  0  0  0
  2  3  1  0  0  0  0
  2 17  1  0  0  0  0
  3  4  1  0  0  0  0
  3 30  1  0  0  0  0
  4  5  2  0  0  0  0
  4 16  1  0  0  0  0
  5  6  1  0  0  0  0
  6  7  1  0  0  0  0
  6 15  1  0  0  0  0
  7  8  2  0  0  0  0
  7 14  1  0  0  0  0
  8  9  1  0  0  0  0
  8 31  1  0  0  0  0
  9 10  1  0  0  0  0
  9 11  2  0  0  0  0
 11 12  1  0  0  0  0
 11 32  1  0  0  0  0
 12 13  1  0  0  0  0
 12 14  2  0  0  0  0
 14 33  1  0  0  0  0
 15 16  2  0  0  0  0
 15 34  1  0  0  0  0
 17 18  2  0  0  0  0
 17 22  1  0  0  0  0
 18 19  1  0  0  0  0
 18 35  1  0  0  0  0
 19 20  2  0  0  0  0
 19 36  1  0  0  0  0
 20 21  1  0  0  0  0
 20 37  1  0  0  0  0
 21 22  2  0  0  0  0
 21 38  1  0  0  0  0
 22 23  1  0  0  0  0
 23 24  1  0  0  0  0
 24 25  2  0  0  0  0
 24 29  1  0  0  0  0
 25 26  1  0  0  0  0
 25 39  1  0  0  0  0
 26 27  2  0  0  0  0
 26 40  1  0  0  0  0
 27 28  1  0  0  0  0
 28 29  2  0  0  0  0
 28 41  1  0  0  0  0
 29 42  1  0  0  0  0
M  END
$$$$
