
 OpenBabel01122422403D

 44 47  0  0  0  0  0  0  0  0999 V2000
    2.8259    1.0682   -0.3539 O   0  0  0  0  0  0  0  0  0  0  0  0
    2.1640    0.1283    0.0730 C   0  0  0  0  0  0  0  0  0  0  0  0
    0.8005    0.0365   -0.0563 N   0  0  0  0  0  0  0  0  0  0  0  0
    0.0618    0.9230   -0.9270 C   0  0  0  0  0  0  0  0  0  0  0  0
   -0.5989    2.0362   -0.1501 C   0  0  0  0  0  0  0  0  0  0  0  0
    0.1287    3.2023    0.1087 C   0  0  0  0  0  0  0  0  0  0  0  0
   -0.4608    4.2405    0.8285 C   0  0  0  0  0  0  0  0  0  0  0  0
   -1.7786    4.0544    1.2670 C   0  0  0  0  0  0  0  0  0  0  0  0
   -2.7291    4.8254    1.9887 C   0  0  0  0  0  0  0  0  0  0  0  0
   -3.8821    4.0753    2.0954 C   0  0  0  0  0  0  0  0  0  0  0  0
   -3.6582    2.8727    1.4739 N   0  0  0  0  0  0  0  0  0  0  0  0
   -2.3897    2.8438    0.9626 C   0  0  0  0  0  0  0  0  0  0  0  0
   -1.8680    1.8072    0.2831 N   0  0  0  0  0  0  0  0  0  0  0  0
    2.8327   -0.9387    0.8602 C   0  0  0  0  0  0  0  0  0  0  0  0
    2.4834   -2.3037    0.8095 C   0  0  0  0  0  0  0  0  0  0  0  0
    1.5485   -2.8444   -0.2173 C   0  0  0  0  0  0  0  0  0  0  0  0
    1.5401   -2.3570   -1.3429 O   0  0  0  0  0  0  0  0  0  0  0  0
    0.6652   -4.0041    0.0622 C   0  0  0  0  0  0  0  0  0  0  0  0
    0.3668   -4.8877   -0.9851 C   0  0  0  0  0  0  0  0  0  0  0  0
   -0.4235   -6.0090   -0.7500 C   0  0  0  0  0  0  0  0  0  0  0  0
   -0.9271   -6.2494    0.5281 C   0  0  0  0  0  0  0  0  0  0  0  0
   -0.6554   -5.3599    1.5675 C   0  0  0  0  0  0  0  0  0  0  0  0
    0.1279   -4.2298    1.3354 C   0  0  0  0  0  0  0  0  0  0  0  0
    3.1373   -3.2110    1.6606 C   0  0  0  0  0  0  0  0  0  0  0  0
    4.1303   -2.7657    2.5260 C   0  0  0  0  0  0  0  0  0  0  0  0
    4.7291   -3.6462    3.3391 F   0  0  0  0  0  0  0  0  0  0  0  0
    4.5119   -1.4328    2.5344 C   0  0  0  0  0  0  0  0  0  0  0  0
    5.4982   -1.0202    3.3408 F   0  0  0  0  0  0  0  0  0  0  0  0
    3.8729   -0.5168    1.7088 C   0  0  0  0  0  0  0  0  0  0  0  0
    0.2677   -0.6967    0.3832 H   0  0  0  0  0  0  0  0  0  0  0  0
   -0.7032    0.3176   -1.4258 H   0  0  0  0  0  0  0  0  0  0  0  0
    0.7156    1.3293   -1.7067 H   0  0  0  0  0  0  0  0  0  0  0  0
    1.1515    3.2982   -0.2481 H   0  0  0  0  0  0  0  0  0  0  0  0
    0.0835    5.1560    1.0332 H   0  0  0  0  0  0  0  0  0  0  0  0
   -2.5872    5.8246    2.3790 H   0  0  0  0  0  0  0  0  0  0  0  0
   -4.8373    4.2922    2.5540 H   0  0  0  0  0  0  0  0  0  0  0  0
   -4.3148    2.1123    1.3804 H   0  0  0  0  0  0  0  0  0  0  0  0
    0.7618   -4.7037   -1.9850 H   0  0  0  0  0  0  0  0  0  0  0  0
   -0.6456   -6.6977   -1.5615 H   0  0  0  0  0  0  0  0  0  0  0  0
   -1.5398   -7.1292    0.7129 H   0  0  0  0  0  0  0  0  0  0  0  0
   -1.0556   -5.5490    2.5609 H   0  0  0  0  0  0  0  0  0  0  0  0
    0.3084   -3.5418    2.1575 H   0  0  0  0  0  0  0  0  0  0  0  0
    2.9147   -4.2750    1.6501 H   0  0  0  0  0  0  0  0  0  0  0  0
    4.1870    0.5249    1.7307 H   0  0  0  0  0  0  0  0  0  0  0  0
  1  2  2  0  0  0  0
  2  3  1  0  0  0  0
  2 14  1  0  0  0  0
  3  4  1  0  0  0  0
  3 30  1  0  0  0  0
  4  5  1  0  0  0  0
  4 31  1  0  0  0  0
  4 32  1  0  0  0  0
  5  6  2  0  0  0  0
  5 13  1  0  0  0  0
  6  7  1  0  0  0  0
  6 33  1  0  0  0  0
  7  8  2  0  0  0  0
  7 34  1  0  0  0  0
  8  9  1  0  0  0  0
  8 12  1  0  0  0  0
  9 10  2  0  0  0  0
  9 35  1  0  0  0  0
 10 11  1  0  0  0  0
 10 36  1  0  0  0  0
 11 12  1  0  0  0  0
 11 37  1  0  0  0  0
 12 13  2  0  0  0  0
 14 15  2  0  0  0  0
 14 29  1  0  0  0  0
 15 16  1  0  0  0  0
 15 24  1  0  0  0  0
 16 17  2  0  0  0  0
 16 18  1  0  0  0  0
 18 19  2  0  0  0  0
 18 23  1  0  0  0  0
 19 20  1  0  0  0  0
 19 38  1  0  0  0  0
 20 21  2  0  0  0  0
 20 39  1  0  0  0  0
 21 22  1  0  0  0  0
 21 40  1  0  0  0  0
 22 23  2  0  0  0  0
 22 41  1  0  0  0  0
 23 42  1  0  0  0  0
 24 25  2  0  0  0  0
 24 43  1  0  0  0  0
 25 26  1  0  0  0  0
 25 27  1  0  0  0  0
 27 28  1  0  0  0  0
 27 29  2  0  0  0  0
 29 44  1  0  0  0  0
M  END
$$$$
