
 OpenBabel01122422403D

 46 49  0  0  0  0  0  0  0  0999 V2000
    4.6814    1.1529   -1.6301 N   0  0  0  0  0  0  0  0  0  0  0  0
    4.1688    0.6031   -0.4432 C   0  0  0  0  0  0  0  0  0  0  0  0
    4.6362   -0.6475   -0.0259 C   0  0  0  0  0  0  0  0  0  0  0  0
    4.0538   -1.2700    1.0672 C   0  0  0  0  0  0  0  0  0  0  0  0
    4.5294   -2.4428    1.5019 F   0  0  0  0  0  0  0  0  0  0  0  0
    2.9769   -0.6683    1.7004 C   0  0  0  0  0  0  0  0  0  0  0  0
    2.4290    0.5052    1.3059 N   0  0  0  0  0  0  0  0  0  0  0  0
    3.0387    1.1163    0.2403 C   0  0  0  0  0  0  0  0  0  0  0  0
    2.4697    2.4475   -0.1502 C   0  0  0  0  0  0  0  0  0  0  0  0
    3.1832    3.2373   -0.7645 O   0  0  0  0  0  0  0  0  0  0  0  0
    1.1736    2.6749    0.2867 N   0  0  0  0  0  0  0  0  0  0  0  0
    0.4049    3.8338    0.0367 C   0  0  0  0  0  0  0  0  0  0  0  0
    0.7429    4.7754   -0.9493 C   0  0  0  0  0  0  0  0  0  0  0  0
    0.0086    5.9521   -1.1220 C   0  0  0  0  0  0  0  0  0  0  0  0
    0.3234    6.9385   -2.0934 N   0  0  0  0  0  0  0  0  0  0  0  0
    1.1859    6.8051   -3.1830 C   0  0  0  0  0  0  0  0  0  0  0  0
    1.6816    5.7533   -3.5661 O   0  0  0  0  0  0  0  0  0  0  0  0
    1.4947    8.0793   -3.9318 C   0  0  0  0  0  0  0  0  0  0  0  0
    1.5502    9.2698   -3.1845 C   0  0  0  0  0  0  0  0  0  0  0  0
    1.8691   10.4734   -3.7980 C   0  0  0  0  0  0  0  0  0  0  0  0
    2.1634   10.4945   -5.1566 C   0  0  0  0  0  0  0  0  0  0  0  0
    2.1449    9.3479   -5.9296 C   0  0  0  0  0  0  0  0  0  0  0  0
    2.4622    9.5044   -7.2253 N   0  0  0  0  0  0  0  0  0  0  0  0
    2.4586    8.4224   -8.0207 C   0  0  0  0  0  0  0  0  0  0  0  0
    2.1342    7.1577   -7.5754 C   0  0  0  0  0  0  0  0  0  0  0  0
    1.8032    7.0039   -6.2283 C   0  0  0  0  0  0  0  0  0  0  0  0
    1.8038    8.1061   -5.3363 C   0  0  0  0  0  0  0  0  0  0  0  0
   -1.0731    6.1927   -0.2673 C   0  0  0  0  0  0  0  0  0  0  0  0
   -1.4601    5.2345    0.6764 C   0  0  0  0  0  0  0  0  0  0  0  0
   -0.7343    4.0489    0.8155 C   0  0  0  0  0  0  0  0  0  0  0  0
    5.6454    0.9218   -1.8437 H   0  0  0  0  0  0  0  0  0  0  0  0
    4.5045    2.1658   -1.6863 H   0  0  0  0  0  0  0  0  0  0  0  0
    5.4540   -1.1402   -0.5462 H   0  0  0  0  0  0  0  0  0  0  0  0
    2.5214   -1.1411    2.5655 H   0  0  0  0  0  0  0  0  0  0  0  0
    0.8099    1.9805    0.9332 H   0  0  0  0  0  0  0  0  0  0  0  0
    1.5978    4.5940   -1.5886 H   0  0  0  0  0  0  0  0  0  0  0  0
   -0.1995    7.8005   -2.0196 H   0  0  0  0  0  0  0  0  0  0  0  0
    1.3861    9.2733   -2.1101 H   0  0  0  0  0  0  0  0  0  0  0  0
    1.9107   11.3941   -3.2222 H   0  0  0  0  0  0  0  0  0  0  0  0
    2.4302   11.4376   -5.6302 H   0  0  0  0  0  0  0  0  0  0  0  0
    2.7328    8.6045   -9.0569 H   0  0  0  0  0  0  0  0  0  0  0  0
    2.1427    6.3147   -8.2574 H   0  0  0  0  0  0  0  0  0  0  0  0
    1.5527    6.0028   -5.8843 H   0  0  0  0  0  0  0  0  0  0  0  0
   -1.6457    7.1139   -0.3352 H   0  0  0  0  0  0  0  0  0  0  0  0
   -2.3239    5.4157    1.3096 H   0  0  0  0  0  0  0  0  0  0  0  0
   -1.0513    3.3206    1.5574 H   0  0  0  0  0  0  0  0  0  0  0  0
  1  2  1  0  0  0  0
  1 31  1  0  0  0  0
  1 32  1  0  0  0  0
  2  3  2  0  0  0  0
  2  8  1  0  0  0  0
  3  4  1  0  0  0  0
  3 33  1  0  0  0  0
  4  5  1  0  0  0  0
  4  6  2  0  0  0  0
  6  7  1  0  0  0  0
  6 34  1  0  0  0  0
  7  8  2  0  0  0  0
  8  9  1  0  0  0  0
  9 10  2  0  0  0  0
  9 11  1  0  0  0  0
 11 12  1  0  0  0  0
 11 35  1  0  0  0  0
 12 13  2  0  0  0  0
 12 30  1  0  0  0  0
 13 14  1  0  0  0  0
 13 36  1  0  0  0  0
 14 15  1  0  0  0  0
 14 28  2  0  0  0  0
 15 16  1  0  0  0  0
 15 37  1  0  0  0  0
 16 17  2  0  0  0  0
 16 18  1  0  0  0  0
 18 19  2  0  0  0  0
 18 27  1  0  0  0  0
 19 20  1  0  0  0  0
 19 38  1  0  0  0  0
 20 21  2  0  0  0  0
 20 39  1  0  0  0  0
 21 22  1  0  0  0  0
 21 40  1  0  0  0  0
 22 23  2  0  0  0  0
 22 27  1  0  0  0  0
 23 24  1  0  0  0  0
 24 25  2  0  0  0  0
 24 41  1  0  0  0  0
 25 26  1  0  0  0  0
 25 42  1  0  0  0  0
 26 27  2  0  0  0  0
 26 43  1  0  0  0  0
 28 29  1  0  0  0  0
 28 44  1  0  0  0  0
 29 30  2  0  0  0  0
 29 45  1  0  0  0  0
 30 46  1  0  0  0  0
M  END
$$$$
