
 OpenBabel01122422403D

 40 43  0  0  0  0  0  0  0  0999 V2000
    1.5025   -0.9659    1.4116 N   0  0  0  0  0  0  0  0  0  0  0  0
    2.5146   -0.6836    0.9236 C   0  0  0  0  0  0  0  0  0  0  0  0
    3.7642   -0.3328    0.3341 C   0  0  0  0  0  0  0  0  0  0  0  0
    4.6239    0.6512    0.7578 C   0  0  0  0  0  0  0  0  0  0  0  0
    5.7252    0.6137   -0.0761 N   0  0  0  0  0  0  0  0  0  0  0  0
    6.9172    1.3841    0.0316 C   0  0  0  0  0  0  0  0  0  0  0  0
    7.1052    2.2320    1.1248 C   0  0  0  0  0  0  0  0  0  0  0  0
    8.2830    2.9707    1.2529 C   0  0  0  0  0  0  0  0  0  0  0  0
    9.2924    2.8954    0.2930 C   0  0  0  0  0  0  0  0  0  0  0  0
   10.4868    3.6390    0.3824 N   0  0  0  0  0  0  0  0  0  0  0  0
   10.8349    4.5375    1.3805 C   0  0  0  0  0  0  0  0  0  0  0  0
   10.1550    4.8400    2.3559 O   0  0  0  0  0  0  0  0  0  0  0  0
   12.1590    5.1363    1.2086 C   0  0  0  0  0  0  0  0  0  0  0  0
   12.9355    4.8963    0.1396 N   0  0  0  0  0  0  0  0  0  0  0  0
   14.1091    5.5964    0.3692 O   0  0  0  0  0  0  0  0  0  0  0  0
   14.0415    6.2460    1.5685 C   0  0  0  0  0  0  0  0  0  0  0  0
   15.2232    6.9925    1.9844 C   0  0  0  0  0  0  0  0  0  0  0  0
   15.2315    7.6887    3.2085 C   0  0  0  0  0  0  0  0  0  0  0  0
   16.3578    8.4109    3.6182 C   0  0  0  0  0  0  0  0  0  0  0  0
   17.4847    8.4390    2.8074 C   0  0  0  0  0  0  0  0  0  0  0  0
   18.5587    9.1384    3.1968 F   0  0  0  0  0  0  0  0  0  0  0  0
   17.4962    7.7477    1.6040 C   0  0  0  0  0  0  0  0  0  0  0  0
   18.5871    7.7671    0.8262 F   0  0  0  0  0  0  0  0  0  0  0  0
   16.3786    7.0269    1.1894 C   0  0  0  0  0  0  0  0  0  0  0  0
   12.8073    6.0078    2.1199 C   0  0  0  0  0  0  0  0  0  0  0  0
    9.1085    2.0437   -0.8038 C   0  0  0  0  0  0  0  0  0  0  0  0
    7.9290    1.2882   -0.9347 C   0  0  0  0  0  0  0  0  0  0  0  0
    5.5630   -0.3134   -1.0578 N   0  0  0  0  0  0  0  0  0  0  0  0
    4.3923   -0.8958   -0.7816 C   0  0  0  0  0  0  0  0  0  0  0  0
    4.5423    1.3510    1.5754 H   0  0  0  0  0  0  0  0  0  0  0  0
    6.3727    2.3401    1.9173 H   0  0  0  0  0  0  0  0  0  0  0  0
    8.3708    3.5941    2.1353 H   0  0  0  0  0  0  0  0  0  0  0  0
   11.1788    3.5179   -0.3519 H   0  0  0  0  0  0  0  0  0  0  0  0
   14.3615    7.6787    3.8626 H   0  0  0  0  0  0  0  0  0  0  0  0
   16.3604    8.9494    4.5612 H   0  0  0  0  0  0  0  0  0  0  0  0
   16.4311    6.4969    0.2421 H   0  0  0  0  0  0  0  0  0  0  0  0
   12.4172    6.3674    3.0611 H   0  0  0  0  0  0  0  0  0  0  0  0
    9.8737    1.9503   -1.5713 H   0  0  0  0  0  0  0  0  0  0  0  0
    7.8160    0.6336   -1.7982 H   0  0  0  0  0  0  0  0  0  0  0  0
    4.0502   -1.7080   -1.4115 H   0  0  0  0  0  0  0  0  0  0  0  0
  1  2  3  0  0  0  0
  2  3  1  0  0  0  0
  3  4  2  0  0  0  0
  3 29  1  0  0  0  0
  4  5  1  0  0  0  0
  4 30  1  0  0  0  0
  5  6  1  0  0  0  0
  5 28  1  0  0  0  0
  6  7  2  0  0  0  0
  6 27  1  0  0  0  0
  7  8  1  0  0  0  0
  7 31  1  0  0  0  0
  8  9  2  0  0  0  0
  8 32  1  0  0  0  0
  9 10  1  0  0  0  0
  9 26  1  0  0  0  0
 10 11  1  0  0  0  0
 10 33  1  0  0  0  0
 11 12  2  0  0  0  0
 11 13  1  0  0  0  0
 13 14  2  0  0  0  0
 13 25  1  0  0  0  0
 14 15  1  0  0  0  0
 15 16  1  0  0  0  0
 16 17  1  0  0  0  0
 16 25  2  0  0  0  0
 17 18  2  0  0  0  0
 17 24  1  0  0  0  0
 18 19  1  0  0  0  0
 18 34  1  0  0  0  0
 19 20  2  0  0  0  0
 19 35  1  0  0  0  0
 20 21  1  0  0  0  0
 20 22  1  0  0  0  0
 22 23  1  0  0  0  0
 22 24  2  0  0  0  0
 24 36  1  0  0  0  0
 25 37  1  0  0  0  0
 26 27  2  0  0  0  0
 26 38  1  0  0  0  0
 27 39  1  0  0  0  0
 28 29  2  0  0  0  0
 29 40  1  0  0  0  0
M  END
$$$$
