
 OpenBabel01122422403D

 47 50  0  0  0  0  0  0  0  0999 V2000
    2.6352   -2.5393    0.6810 C   0  0  0  0  0  0  0  0  0  0  0  0
    3.3623   -1.2661    0.8800 C   0  0  0  0  0  0  0  0  0  0  0  0
    4.6960   -0.9898    0.6573 C   0  0  0  0  0  0  0  0  0  0  0  0
    4.9105    0.3355    0.9830 N   0  0  0  0  0  0  0  0  0  0  0  0
    6.1193    1.0885    0.8924 C   0  0  0  0  0  0  0  0  0  0  0  0
    7.2849    0.5435    0.3406 C   0  0  0  0  0  0  0  0  0  0  0  0
    8.4401    1.3330    0.2215 C   0  0  0  0  0  0  0  0  0  0  0  0
    8.4529    2.6599    0.6704 C   0  0  0  0  0  0  0  0  0  0  0  0
    9.6809    3.4858    0.4735 C   0  0  0  0  0  0  0  0  0  0  0  0
   10.4456    3.2298   -0.4499 O   0  0  0  0  0  0  0  0  0  0  0  0
    9.9304    4.4639    1.4379 N   0  0  0  0  0  0  0  0  0  0  0  0
   11.0037    5.3474    1.3645 C   0  0  0  0  0  0  0  0  0  0  0  0
   11.2871    6.1457    0.3094 C   0  0  0  0  0  0  0  0  0  0  0  0
   10.3809    6.1388   -0.9109 C   0  0  0  0  0  0  0  0  0  0  0  0
    9.6291    6.1330   -1.9232 N   0  0  0  0  0  0  0  0  0  0  0  0
   12.5319    6.9595    0.2682 C   0  0  0  0  0  0  0  0  0  0  0  0
   12.7402    7.6916   -0.6983 O   0  0  0  0  0  0  0  0  0  0  0  0
   13.3725    6.8447    1.3951 N   0  0  0  0  0  0  0  0  0  0  0  0
   14.5973    7.5818    1.4146 C   0  0  0  0  0  0  0  0  0  0  0  0
   14.9434    8.3290    2.5485 C   0  0  0  0  0  0  0  0  0  0  0  0
   16.1263    9.0677    2.5731 C   0  0  0  0  0  0  0  0  0  0  0  0
   16.9935    9.0338    1.4828 C   0  0  0  0  0  0  0  0  0  0  0  0
   16.6710    8.2742    0.3597 C   0  0  0  0  0  0  0  0  0  0  0  0
   15.4698    7.5629    0.3180 C   0  0  0  0  0  0  0  0  0  0  0  0
   13.0105    6.0679    2.4884 C   0  0  0  0  0  0  0  0  0  0  0  0
   11.8753    5.3627    2.5154 C   0  0  0  0  0  0  0  0  0  0  0  0
    7.2935    3.2025    1.2307 C   0  0  0  0  0  0  0  0  0  0  0  0
    6.1375    2.4231    1.3357 C   0  0  0  0  0  0  0  0  0  0  0  0
    3.7649    0.9138    1.4297 N   0  0  0  0  0  0  0  0  0  0  0  0
    2.8412   -0.0416    1.3391 C   0  0  0  0  0  0  0  0  0  0  0  0
    3.3228   -3.3597    0.4534 H   0  0  0  0  0  0  0  0  0  0  0  0
    1.9232   -2.4514   -0.1460 H   0  0  0  0  0  0  0  0  0  0  0  0
    2.0786   -2.8078    1.5853 H   0  0  0  0  0  0  0  0  0  0  0  0
    5.4925   -1.6263    0.3030 H   0  0  0  0  0  0  0  0  0  0  0  0
    7.3267   -0.4730   -0.0405 H   0  0  0  0  0  0  0  0  0  0  0  0
    9.3305    0.9068   -0.2436 H   0  0  0  0  0  0  0  0  0  0  0  0
    9.5970    4.2116    2.3626 H   0  0  0  0  0  0  0  0  0  0  0  0
   14.2651    8.3959    3.3949 H   0  0  0  0  0  0  0  0  0  0  0  0
   16.3629    9.6817    3.4382 H   0  0  0  0  0  0  0  0  0  0  0  0
   17.9185    9.6049    1.5046 H   0  0  0  0  0  0  0  0  0  0  0  0
   17.3498    8.2401   -0.4887 H   0  0  0  0  0  0  0  0  0  0  0  0
   15.2389    6.9743   -0.5676 H   0  0  0  0  0  0  0  0  0  0  0  0
   13.7167    6.0076    3.3125 H   0  0  0  0  0  0  0  0  0  0  0  0
   11.6569    4.7245    3.3657 H   0  0  0  0  0  0  0  0  0  0  0  0
    7.2535    4.2424    1.5448 H   0  0  0  0  0  0  0  0  0  0  0  0
    5.2364    2.8745    1.7555 H   0  0  0  0  0  0  0  0  0  0  0  0
    1.8203    0.1892    1.6184 H   0  0  0  0  0  0  0  0  0  0  0  0
  1  2  1  0  0  0  0
  1 31  1  0  0  0  0
  1 32  1  0  0  0  0
  1 33  1  0  0  0  0
  2  3  2  0  0  0  0
  2 30  1  0  0  0  0
  3  4  1  0  0  0  0
  3 34  1  0  0  0  0
  4  5  1  0  0  0  0
  4 29  1  0  0  0  0
  5  6  2  0  0  0  0
  5 28  1  0  0  0  0
  6  7  1  0  0  0  0
  6 35  1  0  0  0  0
  7  8  2  0  0  0  0
  7 36  1  0  0  0  0
  8  9  1  0  0  0  0
  8 27  1  0  0  0  0
  9 10  2  0  0  0  0
  9 11  1  0  0  0  0
 11 12  1  0  0  0  0
 11 37  1  0  0  0  0
 12 13  2  0  0  0  0
 12 26  1  0  0  0  0
 13 14  1  0  0  0  0
 13 16  1  0  0  0  0
 14 15  3  0  0  0  0
 16 17  2  0  0  0  0
 16 18  1  0  0  0  0
 18 19  1  0  0  0  0
 18 25  1  0  0  0  0
 19 20  2  0  0  0  0
 19 24  1  0  0  0  0
 20 21  1  0  0  0  0
 20 38  1  0  0  0  0
 21 22  2  0  0  0  0
 21 39  1  0  0  0  0
 22 23  1  0  0  0  0
 22 40  1  0  0  0  0
 23 24  2  0  0  0  0
 23 41  1  0  0  0  0
 24 42  1  0  0  0  0
 25 26  2  0  0  0  0
 25 43  1  0  0  0  0
 26 44  1  0  0  0  0
 27 28  2  0  0  0  0
 27 45  1  0  0  0  0
 28 46  1  0  0  0  0
 29 30  2  0  0  0  0
 30 47  1  0  0  0  0
M  END
$$$$
