
 OpenBabel01122422403D

 42 45  0  0  0  0  0  0  0  0999 V2000
    4.9672    1.0375    2.5029 O   0  0  0  0  0  0  0  0  0  0  0  0
    4.4225    0.4691    1.5538 C   0  0  0  0  0  0  0  0  0  0  0  0
    3.1147    0.0609    1.5999 N   0  0  0  0  0  0  0  0  0  0  0  0
    2.2673    0.4006    2.6468 C   0  0  0  0  0  0  0  0  0  0  0  0
    2.3952    1.5040    3.4045 C   0  0  0  0  0  0  0  0  0  0  0  0
    1.5629    1.7400    4.5482 C   0  0  0  0  0  0  0  0  0  0  0  0
    0.6588    0.8230    4.9004 C   0  0  0  0  0  0  0  0  0  0  0  0
    0.4451   -0.3263    4.1545 N   0  0  0  0  0  0  0  0  0  0  0  0
   -0.4481   -1.3319    4.6263 C   0  0  0  0  0  0  0  0  0  0  0  0
   -0.3599   -1.7703    5.9558 C   0  0  0  0  0  0  0  0  0  0  0  0
   -1.1630   -2.8178    6.4048 C   0  0  0  0  0  0  0  0  0  0  0  0
   -2.0877   -3.4034    5.5422 C   0  0  0  0  0  0  0  0  0  0  0  0
   -2.2085   -2.9467    4.2306 C   0  0  0  0  0  0  0  0  0  0  0  0
   -1.3823   -1.9226    3.7697 C   0  0  0  0  0  0  0  0  0  0  0  0
    1.1655   -0.5764    2.9670 C   0  0  0  0  0  0  0  0  0  0  0  0
    1.0416   -1.5520    2.2209 O   0  0  0  0  0  0  0  0  0  0  0  0
    5.2033    0.2248    0.3032 C   0  0  0  0  0  0  0  0  0  0  0  0
    6.3355    0.9580    0.3018 C   0  0  0  0  0  0  0  0  0  0  0  0
    7.1942    0.9576   -0.8060 C   0  0  0  0  0  0  0  0  0  0  0  0
    8.2839    1.6476   -0.9983 N   0  0  0  0  0  0  0  0  0  0  0  0
    8.7081    1.3339   -2.2689 C   0  0  0  0  0  0  0  0  0  0  0  0
    9.9225    2.0164   -2.8223 C   0  0  0  0  0  0  0  0  0  0  0  0
   10.4517    2.9213   -1.9541 F   0  0  0  0  0  0  0  0  0  0  0  0
   10.9128    1.1357   -3.1182 F   0  0  0  0  0  0  0  0  0  0  0  0
    9.6417    2.6972   -3.9646 F   0  0  0  0  0  0  0  0  0  0  0  0
    7.8481    0.3905   -2.8281 C   0  0  0  0  0  0  0  0  0  0  0  0
    6.8596    0.1706   -1.8902 N   0  0  0  0  0  0  0  0  0  0  0  0
    5.7084   -0.6246   -1.9122 C   0  0  0  0  0  0  0  0  0  0  0  0
    4.8695   -0.6165   -0.8503 C   0  0  0  0  0  0  0  0  0  0  0  0
    2.8027   -0.7137    1.0252 H   0  0  0  0  0  0  0  0  0  0  0  0
    3.1607    2.2504    3.2174 H   0  0  0  0  0  0  0  0  0  0  0  0
    1.7200    2.6421    5.1286 H   0  0  0  0  0  0  0  0  0  0  0  0
    0.0353    0.9755    5.7807 H   0  0  0  0  0  0  0  0  0  0  0  0
    0.3854   -1.3532    6.6288 H   0  0  0  0  0  0  0  0  0  0  0  0
   -1.0499   -3.1904    7.4192 H   0  0  0  0  0  0  0  0  0  0  0  0
   -2.7082   -4.2251    5.8888 H   0  0  0  0  0  0  0  0  0  0  0  0
   -2.9341   -3.3966    3.5589 H   0  0  0  0  0  0  0  0  0  0  0  0
   -1.4820   -1.5804    2.7426 H   0  0  0  0  0  0  0  0  0  0  0  0
    6.6334    1.6057    1.1238 H   0  0  0  0  0  0  0  0  0  0  0  0
    7.8455   -0.1009   -3.7916 H   0  0  0  0  0  0  0  0  0  0  0  0
    5.5318   -1.2191   -2.8039 H   0  0  0  0  0  0  0  0  0  0  0  0
    3.9717   -1.2259   -0.8438 H   0  0  0  0  0  0  0  0  0  0  0  0
  1  2  2  0  0  0  0
  2  3  1  0  0  0  0
  2 17  1  0  0  0  0
  3  4  1  0  0  0  0
  3 30  1  0  0  0  0
  4  5  2  0  0  0  0
  4 15  1  0  0  0  0
  5  6  1  0  0  0  0
  5 31  1  0  0  0  0
  6  7  2  0  0  0  0
  6 32  1  0  0  0  0
  7  8  1  0  0  0  0
  7 33  1  0  0  0  0
  8  9  1  0  0  0  0
  8 15  1  0  0  0  0
  9 10  2  0  0  0  0
  9 14  1  0  0  0  0
 10 11  1  0  0  0  0
 10 34  1  0  0  0  0
 11 12  2  0  0  0  0
 11 35  1  0  0  0  0
 12 13  1  0  0  0  0
 12 36  1  0  0  0  0
 13 14  2  0  0  0  0
 13 37  1  0  0  0  0
 14 38  1  0  0  0  0
 15 16  2  0  0  0  0
 17 18  2  0  0  0  0
 17 29  1  0  0  0  0
 18 19  1  0  0  0  0
 18 39  1  0  0  0  0
 19 20  2  0  0  0  0
 19 27  1  0  0  0  0
 20 21  1  0  0  0  0
 21 22  1  0  0  0  0
 21 26  2  0  0  0  0
 22 23  1  0  0  0  0
 22 24  1  0  0  0  0
 22 25  1  0  0  0  0
 26 27  1  0  0  0  0
 26 40  1  0  0  0  0
 27 28  1  0  0  0  0
 28 29  2  0  0  0  0
 28 41  1  0  0  0  0
 29 42  1  0  0  0  0
M  END
$$$$
