
 OpenBabel01122422403D

 58 61  0  0  0  0  0  0  0  0999 V2000
    3.2849    5.1211   -5.1804 C   0  0  0  0  0  0  0  0  0  0  0  0
    3.6067    5.0259   -3.7964 O   0  0  0  0  0  0  0  0  0  0  0  0
    4.6556    4.2073   -3.4678 C   0  0  0  0  0  0  0  0  0  0  0  0
    5.3955    3.4478   -4.3787 C   0  0  0  0  0  0  0  0  0  0  0  0
    6.4192    2.6143   -3.9305 C   0  0  0  0  0  0  0  0  0  0  0  0
    6.7260    2.5565   -2.5728 C   0  0  0  0  0  0  0  0  0  0  0  0
    6.0572    3.3853   -1.6659 C   0  0  0  0  0  0  0  0  0  0  0  0
    6.4069    3.4464   -0.3280 O   0  0  0  0  0  0  0  0  0  0  0  0
    7.7706    3.5346   -0.0351 C   0  0  0  0  0  0  0  0  0  0  0  0
    8.6068    3.9766   -1.0107 N   0  0  0  0  0  0  0  0  0  0  0  0
    9.9296    3.9284   -0.7793 C   0  0  0  0  0  0  0  0  0  0  0  0
   10.4724    3.4948    0.4114 C   0  0  0  0  0  0  0  0  0  0  0  0
    9.6023    3.1040    1.4272 C   0  0  0  0  0  0  0  0  0  0  0  0
    8.2115    3.1364    1.2302 C   0  0  0  0  0  0  0  0  0  0  0  0
    7.2556    2.6322    2.2789 C   0  0  0  0  0  0  0  0  0  0  0  0
    7.7370    2.8024    3.6476 N   0  0  0  0  0  0  0  0  0  0  0  0
    7.2584    1.9761    4.6295 C   0  0  0  0  0  0  0  0  0  0  0  0
    6.4849    1.0462    4.4271 O   0  0  0  0  0  0  0  0  0  0  0  0
    7.7663    2.2906    5.8694 N   0  0  0  0  0  0  0  0  0  0  0  0
    7.4296    1.4245    6.9951 C   0  0  0  0  0  0  0  0  0  0  0  0
    8.0506    1.8890    8.3161 C   0  0  0  0  0  0  0  0  0  0  0  0
    7.6794    1.0351    9.5109 C   0  0  0  0  0  0  0  0  0  0  0  0
    7.9834   -0.3325    9.5512 C   0  0  0  0  0  0  0  0  0  0  0  0
    7.6912   -1.1042   10.6839 C   0  0  0  0  0  0  0  0  0  0  0  0
    7.0885   -0.5173   11.8030 C   0  0  0  0  0  0  0  0  0  0  0  0
    6.8008   -1.2782   12.9737 N   0  0  0  0  0  0  0  0  0  0  0  0
    7.0927   -2.6061   13.2184 C   0  0  0  0  0  0  0  0  0  0  0  0
    6.6058   -2.9093   14.4676 C   0  0  0  0  0  0  0  0  0  0  0  0
    6.0458   -1.7105   14.9248 C   0  0  0  0  0  0  0  0  0  0  0  0
    6.1685   -0.7180   14.0413 N   0  0  0  0  0  0  0  0  0  0  0  0
    6.7713    0.8475   11.7665 C   0  0  0  0  0  0  0  0  0  0  0  0
    7.0683    1.6144   10.6324 C   0  0  0  0  0  0  0  0  0  0  0  0
    4.9890    4.1690   -2.1068 C   0  0  0  0  0  0  0  0  0  0  0  0
    2.4367    5.8048   -5.2865 H   0  0  0  0  0  0  0  0  0  0  0  0
    2.9797    4.1503   -5.5853 H   0  0  0  0  0  0  0  0  0  0  0  0
    4.1215    5.5400   -5.7500 H   0  0  0  0  0  0  0  0  0  0  0  0
    5.2031    3.4795   -5.4462 H   0  0  0  0  0  0  0  0  0  0  0  0
    6.9948    2.0251   -4.6392 H   0  0  0  0  0  0  0  0  0  0  0  0
    7.5296    1.9080   -2.2407 H   0  0  0  0  0  0  0  0  0  0  0  0
   10.5548    4.2359   -1.6124 H   0  0  0  0  0  0  0  0  0  0  0  0
   11.5477    3.4525    0.5419 H   0  0  0  0  0  0  0  0  0  0  0  0
   10.0196    2.7450    2.3650 H   0  0  0  0  0  0  0  0  0  0  0  0
    7.0616    1.5699    2.0907 H   0  0  0  0  0  0  0  0  0  0  0  0
    6.3019    3.1698    2.2268 H   0  0  0  0  0  0  0  0  0  0  0  0
    7.8824    3.7561    3.9470 H   0  0  0  0  0  0  0  0  0  0  0  0
    8.7071    2.6563    5.8362 H   0  0  0  0  0  0  0  0  0  0  0  0
    7.7672    0.4126    6.7413 H   0  0  0  0  0  0  0  0  0  0  0  0
    6.3363    1.3907    7.0775 H   0  0  0  0  0  0  0  0  0  0  0  0
    7.7585    2.9309    8.4991 H   0  0  0  0  0  0  0  0  0  0  0  0
    9.1451    1.8965    8.2305 H   0  0  0  0  0  0  0  0  0  0  0  0
    8.4629   -0.8166    8.7023 H   0  0  0  0  0  0  0  0  0  0  0  0
    7.9482   -2.1587   10.6556 H   0  0  0  0  0  0  0  0  0  0  0  0
    7.6149   -3.2209   12.5026 H   0  0  0  0  0  0  0  0  0  0  0  0
    6.6538   -3.8625   14.9745 H   0  0  0  0  0  0  0  0  0  0  0  0
    5.5539   -1.5133   15.8685 H   0  0  0  0  0  0  0  0  0  0  0  0
    6.3022    1.3344   12.6202 H   0  0  0  0  0  0  0  0  0  0  0  0
    6.8224    2.6746   10.6419 H   0  0  0  0  0  0  0  0  0  0  0  0
    4.4291    4.7753   -1.3999 H   0  0  0  0  0  0  0  0  0  0  0  0
  1  2  1  0  0  0  0
  1 34  1  0  0  0  0
  1 35  1  0  0  0  0
  1 36  1  0  0  0  0
  2  3  1  0  0  0  0
  3  4  2  0  0  0  0
  3 33  1  0  0  0  0
  4  5  1  0  0  0  0
  4 37  1  0  0  0  0
  5  6  2  0  0  0  0
  5 38  1  0  0  0  0
  6  7  1  0  0  0  0
  6 39  1  0  0  0  0
  7  8  1  0  0  0  0
  7 33  2  0  0  0  0
  8  9  1  0  0  0  0
  9 10  2  0  0  0  0
  9 14  1  0  0  0  0
 10 11  1  0  0  0  0
 11 12  2  0  0  0  0
 11 40  1  0  0  0  0
 12 13  1  0  0  0  0
 12 41  1  0  0  0  0
 13 14  2  0  0  0  0
 13 42  1  0  0  0  0
 14 15  1  0  0  0  0
 15 16  1  0  0  0  0
 15 43  1  0  0  0  0
 15 44  1  0  0  0  0
 16 17  1  0  0  0  0
 16 45  1  0  0  0  0
 17 18  2  0  0  0  0
 17 19  1  0  0  0  0
 19 20  1  0  0  0  0
 19 46  1  0  0  0  0
 20 21  1  0  0  0  0
 20 47  1  0  0  0  0
 20 48  1  0  0  0  0
 21 22  1  0  0  0  0
 21 49  1  0  0  0  0
 21 50  1  0  0  0  0
 22 23  2  0  0  0  0
 22 32  1  0  0  0  0
 23 24  1  0  0  0  0
 23 51  1  0  0  0  0
 24 25  2  0  0  0  0
 24 52  1  0  0  0  0
 25 26  1  0  0  0  0
 25 31  1  0  0  0  0
 26 27  1  0  0  0  0
 26 30  1  0  0  0  0
 27 28  2  0  0  0  0
 27 53  1  0  0  0  0
 28 29  1  0  0  0  0
 28 54  1  0  0  0  0
 29 30  2  0  0  0  0
 29 55  1  0  0  0  0
 31 32  2  0  0  0  0
 31 56  1  0  0  0  0
 32 57  1  0  0  0  0
 33 58  1  0  0  0  0
M  END
$$$$
