
 OpenBabel01122422403D

 49 52  0  0  0  0  0  0  0  0999 V2000
   -2.3306   -1.2198   -0.5418 C   0  0  0  0  0  0  0  0  0  0  0  0
   -1.1201   -0.5720   -0.0695 N   0  0  0  0  0  0  0  0  0  0  0  0
    0.1264   -1.1730    0.1093 C   0  0  0  0  0  0  0  0  0  0  0  0
    0.4667   -2.5838   -0.1037 C   0  0  0  0  0  0  0  0  0  0  0  0
   -0.3161   -3.4291   -0.5256 O   0  0  0  0  0  0  0  0  0  0  0  0
    1.7694   -2.9080    0.2175 N   0  0  0  0  0  0  0  0  0  0  0  0
    2.3299   -4.2356    0.0973 C   0  0  0  0  0  0  0  0  0  0  0  0
    3.7911   -4.1509   -0.2881 C   0  0  0  0  0  0  0  0  0  0  0  0
    4.1644   -4.2386   -1.6360 C   0  0  0  0  0  0  0  0  0  0  0  0
    5.4999   -4.0955   -2.0166 C   0  0  0  0  0  0  0  0  0  0  0  0
    6.4815   -3.8351   -1.0595 C   0  0  0  0  0  0  0  0  0  0  0  0
    6.1326   -3.7286    0.2932 C   0  0  0  0  0  0  0  0  0  0  0  0
    7.1146   -3.4102    1.2747 N   0  0  0  0  0  0  0  0  0  0  0  0
    8.4374   -3.0705    1.0740 C   0  0  0  0  0  0  0  0  0  0  0  0
    8.9861   -2.8042    2.3074 C   0  0  0  0  0  0  0  0  0  0  0  0
    7.9361   -3.0181    3.2067 C   0  0  0  0  0  0  0  0  0  0  0  0
    6.8031   -3.3736    2.5994 N   0  0  0  0  0  0  0  0  0  0  0  0
    4.7886   -3.9077    0.6756 C   0  0  0  0  0  0  0  0  0  0  0  0
    0.9776   -0.1485    0.5089 C   0  0  0  0  0  0  0  0  0  0  0  0
    0.2406    1.0430    0.6299 C   0  0  0  0  0  0  0  0  0  0  0  0
   -1.0597    0.7912    0.2310 C   0  0  0  0  0  0  0  0  0  0  0  0
   -2.1664    1.7400    0.1536 C   0  0  0  0  0  0  0  0  0  0  0  0
   -3.3392    1.4124    0.3310 O   0  0  0  0  0  0  0  0  0  0  0  0
   -1.8994    3.1838   -0.1210 C   0  0  0  0  0  0  0  0  0  0  0  0
   -2.7192    4.1590    0.4699 C   0  0  0  0  0  0  0  0  0  0  0  0
   -2.5093    5.5178    0.2017 C   0  0  0  0  0  0  0  0  0  0  0  0
   -1.4822    5.9133   -0.6555 C   0  0  0  0  0  0  0  0  0  0  0  0
   -0.6726    4.9505   -1.2536 C   0  0  0  0  0  0  0  0  0  0  0  0
   -0.8938    3.5975   -0.9981 C   0  0  0  0  0  0  0  0  0  0  0  0
   -0.1279    2.7124   -1.6497 F   0  0  0  0  0  0  0  0  0  0  0  0
   -2.0982   -2.1146   -1.1151 H   0  0  0  0  0  0  0  0  0  0  0  0
   -2.8629   -0.5390   -1.2137 H   0  0  0  0  0  0  0  0  0  0  0  0
   -2.9488   -1.4638    0.3249 H   0  0  0  0  0  0  0  0  0  0  0  0
    2.3272   -2.2352    0.7149 H   0  0  0  0  0  0  0  0  0  0  0  0
    1.7669   -4.8277   -0.6321 H   0  0  0  0  0  0  0  0  0  0  0  0
    2.2251   -4.7309    1.0690 H   0  0  0  0  0  0  0  0  0  0  0  0
    3.4120   -4.4125   -2.4023 H   0  0  0  0  0  0  0  0  0  0  0  0
    5.7757   -4.1750   -3.0651 H   0  0  0  0  0  0  0  0  0  0  0  0
    7.5055   -3.7235   -1.4039 H   0  0  0  0  0  0  0  0  0  0  0  0
    8.8781   -3.0199    0.0902 H   0  0  0  0  0  0  0  0  0  0  0  0
   10.0008   -2.4928    2.5186 H   0  0  0  0  0  0  0  0  0  0  0  0
    7.9462   -2.9226    4.2849 H   0  0  0  0  0  0  0  0  0  0  0  0
    4.5070   -3.8343    1.7257 H   0  0  0  0  0  0  0  0  0  0  0  0
    2.0378   -0.2337    0.7041 H   0  0  0  0  0  0  0  0  0  0  0  0
    0.6352    1.9973    0.9470 H   0  0  0  0  0  0  0  0  0  0  0  0
   -3.5279    3.8656    1.1365 H   0  0  0  0  0  0  0  0  0  0  0  0
   -3.1534    6.2686    0.6562 H   0  0  0  0  0  0  0  0  0  0  0  0
   -1.3220    6.9680   -0.8692 H   0  0  0  0  0  0  0  0  0  0  0  0
    0.1231    5.2406   -1.9338 H   0  0  0  0  0  0  0  0  0  0  0  0
  1  2  1  0  0  0  0
  1 31  1  0  0  0  0
  1 32  1  0  0  0  0
  1 33  1  0  0  0  0
  2  3  1  0  0  0  0
  2 21  1  0  0  0  0
  3  4  1  0  0  0  0
  3 19  2  0  0  0  0
  4  5  2  0  0  0  0
  4  6  1  0  0  0  0
  6  7  1  0  0  0  0
  6 34  1  0  0  0  0
  7  8  1  0  0  0  0
  7 35  1  0  0  0  0
  7 36  1  0  0  0  0
  8  9  2  0  0  0  0
  8 18  1  0  0  0  0
  9 10  1  0  0  0  0
  9 37  1  0  0  0  0
 10 11  2  0  0  0  0
 10 38  1  0  0  0  0
 11 12  1  0  0  0  0
 11 39  1  0  0  0  0
 12 13  1  0  0  0  0
 12 18  2  0  0  0  0
 13 14  1  0  0  0  0
 13 17  1  0  0  0  0
 14 15  2  0  0  0  0
 14 40  1  0  0  0  0
 15 16  1  0  0  0  0
 15 41  1  0  0  0  0
 16 17  2  0  0  0  0
 16 42  1  0  0  0  0
 18 43  1  0  0  0  0
 19 20  1  0  0  0  0
 19 44  1  0  0  0  0
 20 21  2  0  0  0  0
 20 45  1  0  0  0  0
 21 22  1  0  0  0  0
 22 23  2  0  0  0  0
 22 24  1  0  0  0  0
 24 25  2  0  0  0  0
 24 29  1  0  0  0  0
 25 26  1  0  0  0  0
 25 46  1  0  0  0  0
 26 27  2  0  0  0  0
 26 47  1  0  0  0  0
 27 28  1  0  0  0  0
 27 48  1  0  0  0  0
 28 29  2  0  0  0  0
 28 49  1  0  0  0  0
 29 30  1  0  0  0  0
M  END
$$$$
