
 OpenBabel01122422403D

 48 51  0  0  0  0  0  0  0  0999 V2000
    1.0903   -0.1837    0.0691 O   0  0  0  0  0  0  0  0  0  0  0  0
    2.3043   -0.0092    0.1066 C   0  0  0  0  0  0  0  0  0  0  0  0
    2.9763    1.1858   -0.0755 N   0  0  0  0  0  0  0  0  0  0  0  0
    2.3722    2.4455   -0.2904 C   0  0  0  0  0  0  0  0  0  0  0  0
    1.0208    2.7011   -0.0443 C   0  0  0  0  0  0  0  0  0  0  0  0
    0.4716    3.9569   -0.3154 C   0  0  0  0  0  0  0  0  0  0  0  0
    1.2708    4.9713   -0.8332 C   0  0  0  0  0  0  0  0  0  0  0  0
    2.6249    4.7361   -1.0606 C   0  0  0  0  0  0  0  0  0  0  0  0
    3.1767    3.4820   -0.7791 C   0  0  0  0  0  0  0  0  0  0  0  0
    3.1602   -1.2091    0.3008 C   0  0  0  0  0  0  0  0  0  0  0  0
    2.7330   -2.4209   -0.2587 C   0  0  0  0  0  0  0  0  0  0  0  0
    3.4666   -3.5897   -0.0520 C   0  0  0  0  0  0  0  0  0  0  0  0
    4.6280   -3.5614    0.7289 C   0  0  0  0  0  0  0  0  0  0  0  0
    5.4352   -4.8170    0.9610 C   0  0  0  0  0  0  0  0  0  0  0  0
    6.7467   -4.5915    0.4366 O   0  0  0  0  0  0  0  0  0  0  0  0
    6.8870   -4.9167   -0.8735 C   0  0  0  0  0  0  0  0  0  0  0  0
    6.1410   -5.6672   -1.4890 O   0  0  0  0  0  0  0  0  0  0  0  0
    7.9804   -4.1719   -1.4277 C   0  0  0  0  0  0  0  0  0  0  0  0
    9.1468   -3.7539   -0.8084 C   0  0  0  0  0  0  0  0  0  0  0  0
    9.9279   -3.2032   -1.8291 C   0  0  0  0  0  0  0  0  0  0  0  0
    9.3224   -3.2610   -3.0129 N   0  0  0  0  0  0  0  0  0  0  0  0
    8.0758   -3.7411   -2.7427 N   0  0  0  0  0  0  0  0  0  0  0  0
    7.0779   -3.6627   -3.7462 C   0  0  0  0  0  0  0  0  0  0  0  0
    5.7167   -3.5535   -3.4512 C   0  0  0  0  0  0  0  0  0  0  0  0
    4.7911   -3.4955   -4.4888 C   0  0  0  0  0  0  0  0  0  0  0  0
    5.2605   -3.5336   -5.7905 C   0  0  0  0  0  0  0  0  0  0  0  0
    6.5701   -3.6004   -6.1130 N   0  0  0  0  0  0  0  0  0  0  0  0
    7.4530   -3.6507   -5.0853 C   0  0  0  0  0  0  0  0  0  0  0  0
    5.0540   -2.3404    1.2792 C   0  0  0  0  0  0  0  0  0  0  0  0
    4.3248   -1.1675    1.0697 C   0  0  0  0  0  0  0  0  0  0  0  0
    3.9765    1.1423   -0.2128 H   0  0  0  0  0  0  0  0  0  0  0  0
    0.3649    1.9412    0.3692 H   0  0  0  0  0  0  0  0  0  0  0  0
   -0.5841    4.1326   -0.1251 H   0  0  0  0  0  0  0  0  0  0  0  0
    0.8370    5.9418   -1.0585 H   0  0  0  0  0  0  0  0  0  0  0  0
    3.2494    5.5270   -1.4678 H   0  0  0  0  0  0  0  0  0  0  0  0
    4.2330    3.3236   -0.9776 H   0  0  0  0  0  0  0  0  0  0  0  0
    1.8189   -2.4540   -0.8499 H   0  0  0  0  0  0  0  0  0  0  0  0
    3.1207   -4.5184   -0.5031 H   0  0  0  0  0  0  0  0  0  0  0  0
    4.9549   -5.7048    0.5305 H   0  0  0  0  0  0  0  0  0  0  0  0
    5.5227   -4.9992    2.0375 H   0  0  0  0  0  0  0  0  0  0  0  0
    9.4114   -3.8865    0.2315 H   0  0  0  0  0  0  0  0  0  0  0  0
   10.9237   -2.7813   -1.7670 H   0  0  0  0  0  0  0  0  0  0  0  0
    5.3462   -3.4777   -2.4346 H   0  0  0  0  0  0  0  0  0  0  0  0
    3.7287   -3.4180   -4.2847 H   0  0  0  0  0  0  0  0  0  0  0  0
    4.5755   -3.5030   -6.6326 H   0  0  0  0  0  0  0  0  0  0  0  0
    8.4948   -3.7142   -5.3900 H   0  0  0  0  0  0  0  0  0  0  0  0
    5.9584   -2.3048    1.8848 H   0  0  0  0  0  0  0  0  0  0  0  0
    4.6536   -0.2469    1.5442 H   0  0  0  0  0  0  0  0  0  0  0  0
  1  2  2  0  0  0  0
  2  3  1  0  0  0  0
  2 10  1  0  0  0  0
  3  4  1  0  0  0  0
  3 31  1  0  0  0  0
  4  5  2  0  0  0  0
  4  9  1  0  0  0  0
  5  6  1  0  0  0  0
  5 32  1  0  0  0  0
  6  7  2  0  0  0  0
  6 33  1  0  0  0  0
  7  8  1  0  0  0  0
  7 34  1  0  0  0  0
  8  9  2  0  0  0  0
  8 35  1  0  0  0  0
  9 36  1  0  0  0  0
 10 11  2  0  0  0  0
 10 30  1  0  0  0  0
 11 12  1  0  0  0  0
 11 37  1  0  0  0  0
 12 13  2  0  0  0  0
 12 38  1  0  0  0  0
 13 14  1  0  0  0  0
 13 29  1  0  0  0  0
 14 15  1  0  0  0  0
 14 39  1  0  0  0  0
 14 40  1  0  0  0  0
 15 16  1  0  0  0  0
 16 17  2  0  0  0  0
 16 18  1  0  0  0  0
 18 19  2  0  0  0  0
 18 22  1  0  0  0  0
 19 20  1  0  0  0  0
 19 41  1  0  0  0  0
 20 21  2  0  0  0  0
 20 42  1  0  0  0  0
 21 22  1  0  0  0  0
 22 23  1  0  0  0  0
 23 24  2  0  0  0  0
 23 28  1  0  0  0  0
 24 25  1  0  0  0  0
 24 43  1  0  0  0  0
 25 26  2  0  0  0  0
 25 44  1  0  0  0  0
 26 27  1  0  0  0  0
 26 45  1  0  0  0  0
 27 28  2  0  0  0  0
 28 46  1  0  0  0  0
 29 30  2  0  0  0  0
 29 47  1  0  0  0  0
 30 48  1  0  0  0  0
M  END
$$$$
