
 OpenBabel01122422403D

 46 49  0  0  0  0  0  0  0  0999 V2000
    0.8880    0.1487    0.0477 O   0  0  0  0  0  0  0  0  0  0  0  0
    2.1073    0.0325    0.0562 C   0  0  0  0  0  0  0  0  0  0  0  0
    2.8223   -0.8464    0.8467 N   0  0  0  0  0  0  0  0  0  0  0  0
    2.2502   -1.8066    1.6693 C   0  0  0  0  0  0  0  0  0  0  0  0
    1.0023   -2.2798    1.5311 C   0  0  0  0  0  0  0  0  0  0  0  0
    0.4455   -3.2297    2.4492 C   0  0  0  0  0  0  0  0  0  0  0  0
    1.1529   -3.6221    3.5105 C   0  0  0  0  0  0  0  0  0  0  0  0
    2.4548   -3.1873    3.7285 N   0  0  0  0  0  0  0  0  0  0  0  0
    3.1284   -3.5386    4.9392 C   0  0  0  0  0  0  0  0  0  0  0  0
    2.4711   -3.3834    6.1703 C   0  0  0  0  0  0  0  0  0  0  0  0
    3.1403   -3.6391    7.3679 C   0  0  0  0  0  0  0  0  0  0  0  0
    4.4557   -4.0967    7.3445 C   0  0  0  0  0  0  0  0  0  0  0  0
    5.1019   -4.2980    6.1255 C   0  0  0  0  0  0  0  0  0  0  0  0
    4.4462   -4.0062    4.9272 C   0  0  0  0  0  0  0  0  0  0  0  0
    3.1018   -2.3268    2.8125 C   0  0  0  0  0  0  0  0  0  0  0  0
    4.2588   -1.9056    2.9006 O   0  0  0  0  0  0  0  0  0  0  0  0
    2.8670    0.9528   -0.8139 C   0  0  0  0  0  0  0  0  0  0  0  0
    2.3755    2.2543   -0.9638 C   0  0  0  0  0  0  0  0  0  0  0  0
    2.9244    3.1051   -1.9214 C   0  0  0  0  0  0  0  0  0  0  0  0
    3.9634    2.6725   -2.7543 C   0  0  0  0  0  0  0  0  0  0  0  0
    4.4826    3.5701   -3.6897 N   0  0  0  0  0  0  0  0  0  0  0  0
    5.7092    3.6310   -4.3382 C   0  0  0  0  0  0  0  0  0  0  0  0
    6.7185    2.8226   -3.9785 N   0  0  0  0  0  0  0  0  0  0  0  0
    7.8981    2.9877   -4.5989 C   0  0  0  0  0  0  0  0  0  0  0  0
    8.1076    3.9230   -5.5790 C   0  0  0  0  0  0  0  0  0  0  0  0
    7.0191    4.6992   -5.8892 C   0  0  0  0  0  0  0  0  0  0  0  0
    5.8232    4.5799   -5.2825 N   0  0  0  0  0  0  0  0  0  0  0  0
    4.4686    1.3770   -2.5627 C   0  0  0  0  0  0  0  0  0  0  0  0
    3.9248    0.5121   -1.6049 C   0  0  0  0  0  0  0  0  0  0  0  0
    3.8073   -0.6624    1.0195 H   0  0  0  0  0  0  0  0  0  0  0  0
    0.3485   -1.9581    0.7279 H   0  0  0  0  0  0  0  0  0  0  0  0
   -0.5628   -3.5883    2.2712 H   0  0  0  0  0  0  0  0  0  0  0  0
    0.7374   -4.3327    4.2192 H   0  0  0  0  0  0  0  0  0  0  0  0
    1.4575   -2.9920    6.2111 H   0  0  0  0  0  0  0  0  0  0  0  0
    2.6420   -3.4597    8.3171 H   0  0  0  0  0  0  0  0  0  0  0  0
    4.9815   -4.2870    8.2764 H   0  0  0  0  0  0  0  0  0  0  0  0
    6.1235   -4.6679    6.1055 H   0  0  0  0  0  0  0  0  0  0  0  0
    4.9664   -4.1649    3.9860 H   0  0  0  0  0  0  0  0  0  0  0  0
    1.5421    2.5978   -0.3543 H   0  0  0  0  0  0  0  0  0  0  0  0
    2.5223    4.1102   -2.0204 H   0  0  0  0  0  0  0  0  0  0  0  0
    3.8970    4.3373   -3.9828 H   0  0  0  0  0  0  0  0  0  0  0  0
    8.6900    2.3268   -4.2643 H   0  0  0  0  0  0  0  0  0  0  0  0
    9.0641    4.0428   -6.0650 H   0  0  0  0  0  0  0  0  0  0  0  0
    7.0774    5.4667   -6.6547 H   0  0  0  0  0  0  0  0  0  0  0  0
    5.2638    1.0009   -3.2022 H   0  0  0  0  0  0  0  0  0  0  0  0
    4.2936   -0.5075   -1.5373 H   0  0  0  0  0  0  0  0  0  0  0  0
  1  2  2  0  0  0  0
  2  3  1  0  0  0  0
  2 17  1  0  0  0  0
  3  4  1  0  0  0  0
  3 30  1  0  0  0  0
  4  5  2  0  0  0  0
  4 15  1  0  0  0  0
  5  6  1  0  0  0  0
  5 31  1  0  0  0  0
  6  7  2  0  0  0  0
  6 32  1  0  0  0  0
  7  8  1  0  0  0  0
  7 33  1  0  0  0  0
  8  9  1  0  0  0  0
  8 15  1  0  0  0  0
  9 10  2  0  0  0  0
  9 14  1  0  0  0  0
 10 11  1  0  0  0  0
 10 34  1  0  0  0  0
 11 12  2  0  0  0  0
 11 35  1  0  0  0  0
 12 13  1  0  0  0  0
 12 36  1  0  0  0  0
 13 14  2  0  0  0  0
 13 37  1  0  0  0  0
 14 38  1  0  0  0  0
 15 16  2  0  0  0  0
 17 18  2  0  0  0  0
 17 29  1  0  0  0  0
 18 19  1  0  0  0  0
 18 39  1  0  0  0  0
 19 20  2  0  0  0  0
 19 40  1  0  0  0  0
 20 21  1  0  0  0  0
 20 28  1  0  0  0  0
 21 22  1  0  0  0  0
 21 41  1  0  0  0  0
 22 23  2  0  0  0  0
 22 27  1  0  0  0  0
 23 24  1  0  0  0  0
 24 25  2  0  0  0  0
 24 42  1  0  0  0  0
 25 26  1  0  0  0  0
 25 43  1  0  0  0  0
 26 27  2  0  0  0  0
 26 44  1  0  0  0  0
 28 29  2  0  0  0  0
 28 45  1  0  0  0  0
 29 46  1  0  0  0  0
M  END
$$$$
