
 OpenBabel01122422353D

 50 53  0  0  0  0  0  0  0  0999 V2000
    1.2884    0.9095   -0.7741 C   0  0  0  0  0  0  0  0  0  0  0  0
    2.6621    0.5683   -0.4152 N   0  0  0  0  0  0  0  0  0  0  0  0
    3.2131    0.8540    0.9151 C   0  0  0  0  0  0  0  0  0  0  0  0
    2.3674    1.7408    1.7961 C   0  0  0  0  0  0  0  0  0  0  0  0
    1.4585    1.1750    2.7014 C   0  0  0  0  0  0  0  0  0  0  0  0
    0.6540    1.9945    3.4881 C   0  0  0  0  0  0  0  0  0  0  0  0
    0.7473    3.3863    3.3707 C   0  0  0  0  0  0  0  0  0  0  0  0
   -0.1379    4.2188    4.2190 C   0  0  0  0  0  0  0  0  0  0  0  0
   -0.4696    3.7873    5.3160 O   0  0  0  0  0  0  0  0  0  0  0  0
   -0.5726    5.4013    3.6463 N   0  0  0  0  0  0  0  0  0  0  0  0
   -1.4304    6.3212    4.2824 C   0  0  0  0  0  0  0  0  0  0  0  0
   -1.7078    6.3411    5.6341 C   0  0  0  0  0  0  0  0  0  0  0  0
   -2.5853    7.1875    6.2107 N   0  0  0  0  0  0  0  0  0  0  0  0
   -3.2312    8.0505    5.3946 C   0  0  0  0  0  0  0  0  0  0  0  0
   -4.3116    8.8842    5.9888 C   0  0  0  0  0  0  0  0  0  0  0  0
   -4.2357    9.1821    7.3089 N   0  0  0  0  0  0  0  0  0  0  0  0
   -5.2529    9.8864    7.8325 C   0  0  0  0  0  0  0  0  0  0  0  0
   -6.3414   10.2995    7.1034 C   0  0  0  0  0  0  0  0  0  0  0  0
   -6.3351    9.9517    5.7757 C   0  0  0  0  0  0  0  0  0  0  0  0
   -5.3423    9.2575    5.1914 N   0  0  0  0  0  0  0  0  0  0  0  0
   -2.9875    8.1506    4.0639 N   0  0  0  0  0  0  0  0  0  0  0  0
   -2.0836    7.2917    3.5488 C   0  0  0  0  0  0  0  0  0  0  0  0
    1.6683    3.9603    2.4885 C   0  0  0  0  0  0  0  0  0  0  0  0
    2.4688    3.1375    1.6976 C   0  0  0  0  0  0  0  0  0  0  0  0
    3.4640   -0.1082   -1.3438 C   0  0  0  0  0  0  0  0  0  0  0  0
    3.0481   -0.3339   -2.6687 C   0  0  0  0  0  0  0  0  0  0  0  0
    3.8690   -0.9647   -3.6129 C   0  0  0  0  0  0  0  0  0  0  0  0
    5.1372   -1.4012   -3.2558 C   0  0  0  0  0  0  0  0  0  0  0  0
    5.5746   -1.2205   -1.9517 C   0  0  0  0  0  0  0  0  0  0  0  0
    4.7470   -0.5885   -1.0160 C   0  0  0  0  0  0  0  0  0  0  0  0
    0.7280    1.4171    0.0134 H   0  0  0  0  0  0  0  0  0  0  0  0
    0.7148    0.0085   -1.0205 H   0  0  0  0  0  0  0  0  0  0  0  0
    1.2750    1.5911   -1.6326 H   0  0  0  0  0  0  0  0  0  0  0  0
    4.1834    1.3579    0.8093 H   0  0  0  0  0  0  0  0  0  0  0  0
    3.4027   -0.0854    1.4519 H   0  0  0  0  0  0  0  0  0  0  0  0
    1.3669    0.0938    2.7872 H   0  0  0  0  0  0  0  0  0  0  0  0
   -0.0516    1.5475    4.1868 H   0  0  0  0  0  0  0  0  0  0  0  0
   -0.4088    5.5339    2.6556 H   0  0  0  0  0  0  0  0  0  0  0  0
   -1.2262    5.6713    6.3384 H   0  0  0  0  0  0  0  0  0  0  0  0
   -5.1628   10.1092    8.8908 H   0  0  0  0  0  0  0  0  0  0  0  0
   -7.1527   10.8575    7.5497 H   0  0  0  0  0  0  0  0  0  0  0  0
   -7.1563   10.2226    5.1176 H   0  0  0  0  0  0  0  0  0  0  0  0
   -1.9284    7.4005    2.4794 H   0  0  0  0  0  0  0  0  0  0  0  0
    1.7944    5.0371    2.4225 H   0  0  0  0  0  0  0  0  0  0  0  0
    3.1778    3.5832    1.0027 H   0  0  0  0  0  0  0  0  0  0  0  0
    2.0700   -0.0113   -3.0120 H   0  0  0  0  0  0  0  0  0  0  0  0
    3.5113   -1.1052   -4.6293 H   0  0  0  0  0  0  0  0  0  0  0  0
    5.7797   -1.8805   -3.9875 H   0  0  0  0  0  0  0  0  0  0  0  0
    6.5622   -1.5624   -1.6547 H   0  0  0  0  0  0  0  0  0  0  0  0
    5.1484   -0.4862   -0.0125 H   0  0  0  0  0  0  0  0  0  0  0  0
  1  2  1  0  0  0  0
  1 31  1  0  0  0  0
  1 32  1  0  0  0  0
  1 33  1  0  0  0  0
  2  3  1  0  0  0  0
  2 25  1  0  0  0  0
  3  4  1  0  0  0  0
  3 34  1  0  0  0  0
  3 35  1  0  0  0  0
  4  5  2  0  0  0  0
  4 24  1  0  0  0  0
  5  6  1  0  0  0  0
  5 36  1  0  0  0  0
  6  7  2  0  0  0  0
  6 37  1  0  0  0  0
  7  8  1  0  0  0  0
  7 23  1  0  0  0  0
  8  9  2  0  0  0  0
  8 10  1  0  0  0  0
 10 11  1  0  0  0  0
 10 38  1  0  0  0  0
 11 12  2  0  0  0  0
 11 22  1  0  0  0  0
 12 13  1  0  0  0  0
 12 39  1  0  0  0  0
 13 14  2  0  0  0  0
 14 15  1  0  0  0  0
 14 21  1  0  0  0  0
 15 16  2  0  0  0  0
 15 20  1  0  0  0  0
 16 17  1  0  0  0  0
 17 18  2  0  0  0  0
 17 40  1  0  0  0  0
 18 19  1  0  0  0  0
 18 41  1  0  0  0  0
 19 20  2  0  0  0  0
 19 42  1  0  0  0  0
 21 22  2  0  0  0  0
 22 43  1  0  0  0  0
 23 24  2  0  0  0  0
 23 44  1  0  0  0  0
 24 45  1  0  0  0  0
 25 26  2  0  0  0  0
 25 30  1  0  0  0  0
 26 27  1  0  0  0  0
 26 46  1  0  0  0  0
 27 28  2  0  0  0  0
 27 47  1  0  0  0  0
 28 29  1  0  0  0  0
 28 48  1  0  0  0  0
 29 30  2  0  0  0  0
 29 49  1  0  0  0  0
 30 50  1  0  0  0  0
M  END
$$$$
