
 OpenBabel01122422403D

 45 48  0  0  0  0  0  0  0  0999 V2000
    1.0525   -0.4642    0.3861 O   0  0  0  0  0  0  0  0  0  0  0  0
    2.2155   -0.1033    0.2381 C   0  0  0  0  0  0  0  0  0  0  0  0
    2.8403    0.9543    0.8879 N   0  0  0  0  0  0  0  0  0  0  0  0
    2.2312    1.7411    1.8941 C   0  0  0  0  0  0  0  0  0  0  0  0
    1.1002    1.3048    2.5924 C   0  0  0  0  0  0  0  0  0  0  0  0
    0.4591    2.1390    3.5008 C   0  0  0  0  0  0  0  0  0  0  0  0
    0.9437    3.4174    3.7248 C   0  0  0  0  0  0  0  0  0  0  0  0
    0.2256    4.2095    4.5315 F   0  0  0  0  0  0  0  0  0  0  0  0
    2.1137    3.8577    3.1046 C   0  0  0  0  0  0  0  0  0  0  0  0
    2.6392    5.2338    3.3126 C   0  0  0  0  0  0  0  0  0  0  0  0
    3.2601    5.7543    2.3868 O   0  0  0  0  0  0  0  0  0  0  0  0
    2.4415    5.9195    4.5912 C   0  0  0  0  0  0  0  0  0  0  0  0
    2.3480    5.3240    5.8393 C   0  0  0  0  0  0  0  0  0  0  0  0
    2.2085    6.3031    6.7834 N   0  0  0  0  0  0  0  0  0  0  0  0
    2.2346    7.5408    6.1901 C   0  0  0  0  0  0  0  0  0  0  0  0
    2.1712    8.8136    6.7686 C   0  0  0  0  0  0  0  0  0  0  0  0
    2.2063    9.9172    5.9127 C   0  0  0  0  0  0  0  0  0  0  0  0
    2.2824    9.7498    4.5327 C   0  0  0  0  0  0  0  0  0  0  0  0
    2.3519    8.4686    3.9712 C   0  0  0  0  0  0  0  0  0  0  0  0
    2.3484    7.3359    4.8136 C   0  0  0  0  0  0  0  0  0  0  0  0
    2.7638    3.0060    2.1867 C   0  0  0  0  0  0  0  0  0  0  0  0
    3.0073   -0.8257   -0.7748 C   0  0  0  0  0  0  0  0  0  0  0  0
    2.3603   -1.3581   -1.8966 C   0  0  0  0  0  0  0  0  0  0  0  0
    3.0798   -2.1257   -2.8164 C   0  0  0  0  0  0  0  0  0  0  0  0
    2.4290   -2.7638   -4.0024 C   0  0  0  0  0  0  0  0  0  0  0  0
    3.0505   -2.3132   -5.1966 O   0  0  0  0  0  0  0  0  0  0  0  0
    4.4319   -2.3230   -2.5574 C   0  0  0  0  0  0  0  0  0  0  0  0
    5.0869   -1.8165   -1.4847 N   0  0  0  0  0  0  0  0  0  0  0  0
    4.3551   -1.0906   -0.6027 C   0  0  0  0  0  0  0  0  0  0  0  0
    3.7082    1.3068    0.5002 H   0  0  0  0  0  0  0  0  0  0  0  0
    0.6802    0.3151    2.4410 H   0  0  0  0  0  0  0  0  0  0  0  0
   -0.4395    1.8054    4.0105 H   0  0  0  0  0  0  0  0  0  0  0  0
    2.3557    4.2846    6.1384 H   0  0  0  0  0  0  0  0  0  0  0  0
    2.1155    6.1457    7.7773 H   0  0  0  0  0  0  0  0  0  0  0  0
    2.1084    8.9458    7.8438 H   0  0  0  0  0  0  0  0  0  0  0  0
    2.1742   10.9199    6.3324 H   0  0  0  0  0  0  0  0  0  0  0  0
    2.2988   10.6212    3.8827 H   0  0  0  0  0  0  0  0  0  0  0  0
    2.4173    8.3500    2.8927 H   0  0  0  0  0  0  0  0  0  0  0  0
    3.6552    3.3645    1.6738 H   0  0  0  0  0  0  0  0  0  0  0  0
    1.2930   -1.1879   -2.0329 H   0  0  0  0  0  0  0  0  0  0  0  0
    1.3604   -2.5327   -4.0596 H   0  0  0  0  0  0  0  0  0  0  0  0
    2.5325   -3.8522   -3.9433 H   0  0  0  0  0  0  0  0  0  0  0  0
    2.8433   -1.3671   -5.2870 H   0  0  0  0  0  0  0  0  0  0  0  0
    5.0473   -2.9218   -3.2226 H   0  0  0  0  0  0  0  0  0  0  0  0
    4.9020   -0.7579    0.2743 H   0  0  0  0  0  0  0  0  0  0  0  0
  1  2  2  0  0  0  0
  2  3  1  0  0  0  0
  2 22  1  0  0  0  0
  3  4  1  0  0  0  0
  3 30  1  0  0  0  0
  4  5  2  0  0  0  0
  4 21  1  0  0  0  0
  5  6  1  0  0  0  0
  5 31  1  0  0  0  0
  6  7  2  0  0  0  0
  6 32  1  0  0  0  0
  7  8  1  0  0  0  0
  7  9  1  0  0  0  0
  9 10  1  0  0  0  0
  9 21  2  0  0  0  0
 10 11  2  0  0  0  0
 10 12  1  0  0  0  0
 12 13  2  0  0  0  0
 12 20  1  0  0  0  0
 13 14  1  0  0  0  0
 13 33  1  0  0  0  0
 14 15  1  0  0  0  0
 14 34  1  0  0  0  0
 15 16  2  0  0  0  0
 15 20  1  0  0  0  0
 16 17  1  0  0  0  0
 16 35  1  0  0  0  0
 17 18  2  0  0  0  0
 17 36  1  0  0  0  0
 18 19  1  0  0  0  0
 18 37  1  0  0  0  0
 19 20  2  0  0  0  0
 19 38  1  0  0  0  0
 21 39  1  0  0  0  0
 22 23  2  0  0  0  0
 22 29  1  0  0  0  0
 23 24  1  0  0  0  0
 23 40  1  0  0  0  0
 24 25  1  0  0  0  0
 24 27  2  0  0  0  0
 25 26  1  0  0  0  0
 25 41  1  0  0  0  0
 25 42  1  0  0  0  0
 26 43  1  0  0  0  0
 27 28  1  0  0  0  0
 27 44  1  0  0  0  0
 28 29  2  0  0  0  0
 29 45  1  0  0  0  0
M  END
$$$$
