
 OpenBabel01122422403D

 43 46  0  0  0  0  0  0  0  0999 V2000
    1.2680   -0.8768    0.4703 O   0  0  0  0  0  0  0  0  0  0  0  0
    2.2776   -0.2614    0.1426 C   0  0  0  0  0  0  0  0  0  0  0  0
    2.7587    0.8569    0.7863 N   0  0  0  0  0  0  0  0  0  0  0  0
    2.1254    1.4270    1.8675 C   0  0  0  0  0  0  0  0  0  0  0  0
    2.0387    2.7881    2.0572 C   0  0  0  0  0  0  0  0  0  0  0  0
    2.6047    3.8822    1.2548 C   0  0  0  0  0  0  0  0  0  0  0  0
    3.3206    4.7424    2.0206 F   0  0  0  0  0  0  0  0  0  0  0  0
    3.4794    3.3970    0.3256 F   0  0  0  0  0  0  0  0  0  0  0  0
    1.2647    2.9622    3.1868 N   0  0  0  0  0  0  0  0  0  0  0  0
    0.6381    4.1342    3.6834 C   0  0  0  0  0  0  0  0  0  0  0  0
    0.1613    5.1247    2.8262 C   0  0  0  0  0  0  0  0  0  0  0  0
   -0.4597    6.2276    3.3877 C   0  0  0  0  0  0  0  0  0  0  0  0
   -0.6268    6.4019    4.7149 N   0  0  0  0  0  0  0  0  0  0  0  0
   -0.1829    5.4111    5.5187 C   0  0  0  0  0  0  0  0  0  0  0  0
    0.4340    4.2624    5.0598 C   0  0  0  0  0  0  0  0  0  0  0  0
    1.0614    1.7832    3.8349 N   0  0  0  0  0  0  0  0  0  0  0  0
    1.4766    0.8538    2.9702 C   0  0  0  0  0  0  0  0  0  0  0  0
    3.0314   -0.6825   -1.0703 C   0  0  0  0  0  0  0  0  0  0  0  0
    2.7209   -1.9090   -1.6608 C   0  0  0  0  0  0  0  0  0  0  0  0
    3.4337   -2.3542   -2.7814 C   0  0  0  0  0  0  0  0  0  0  0  0
    4.4813   -1.5932   -3.3336 C   0  0  0  0  0  0  0  0  0  0  0  0
    5.2566   -2.0755   -4.4906 C   0  0  0  0  0  0  0  0  0  0  0  0
    5.7752   -1.2419   -5.4655 C   0  0  0  0  0  0  0  0  0  0  0  0
    6.5037   -1.6401   -6.5333 N   0  0  0  0  0  0  0  0  0  0  0  0
    6.7215   -2.9570   -6.6201 C   0  0  0  0  0  0  0  0  0  0  0  0
    6.2747   -3.8785   -5.7601 N   0  0  0  0  0  0  0  0  0  0  0  0
    5.5579   -3.4138   -4.7140 C   0  0  0  0  0  0  0  0  0  0  0  0
    4.7561   -0.3526   -2.7490 C   0  0  0  0  0  0  0  0  0  0  0  0
    4.0409    0.0910   -1.6411 C   0  0  0  0  0  0  0  0  0  0  0  0
    4.3580    1.2954   -1.1422 F   0  0  0  0  0  0  0  0  0  0  0  0
    3.4277    1.4487    0.2960 H   0  0  0  0  0  0  0  0  0  0  0  0
    1.8499    4.4386    0.6990 H   0  0  0  0  0  0  0  0  0  0  0  0
    0.1720    5.0398    1.7493 H   0  0  0  0  0  0  0  0  0  0  0  0
   -0.8714    7.0157    2.7618 H   0  0  0  0  0  0  0  0  0  0  0  0
   -0.3441    5.5731    6.5832 H   0  0  0  0  0  0  0  0  0  0  0  0
    0.7670    3.5049    5.7628 H   0  0  0  0  0  0  0  0  0  0  0  0
    1.3485   -0.1934    3.2144 H   0  0  0  0  0  0  0  0  0  0  0  0
    1.9244   -2.5294   -1.2511 H   0  0  0  0  0  0  0  0  0  0  0  0
    3.1553   -3.3187   -3.2057 H   0  0  0  0  0  0  0  0  0  0  0  0
    5.6067   -0.1666   -5.4449 H   0  0  0  0  0  0  0  0  0  0  0  0
    7.3118   -3.3080   -7.4622 H   0  0  0  0  0  0  0  0  0  0  0  0
    5.2268   -4.1924   -4.0287 H   0  0  0  0  0  0  0  0  0  0  0  0
    5.5490    0.2900   -3.1241 H   0  0  0  0  0  0  0  0  0  0  0  0
  1  2  2  0  0  0  0
  2  3  1  0  0  0  0
  2 18  1  0  0  0  0
  3  4  1  0  0  0  0
  3 31  1  0  0  0  0
  4  5  2  0  0  0  0
  4 17  1  0  0  0  0
  5  6  1  0  0  0  0
  5  9  1  0  0  0  0
  6  7  1  0  0  0  0
  6  8  1  0  0  0  0
  6 32  1  0  0  0  0
  9 10  1  0  0  0  0
  9 16  1  0  0  0  0
 10 11  2  0  0  0  0
 10 15  1  0  0  0  0
 11 12  1  0  0  0  0
 11 33  1  0  0  0  0
 12 13  2  0  0  0  0
 12 34  1  0  0  0  0
 13 14  1  0  0  0  0
 14 15  2  0  0  0  0
 14 35  1  0  0  0  0
 15 36  1  0  0  0  0
 16 17  2  0  0  0  0
 17 37  1  0  0  0  0
 18 19  2  0  0  0  0
 18 29  1  0  0  0  0
 19 20  1  0  0  0  0
 19 38  1  0  0  0  0
 20 21  2  0  0  0  0
 20 39  1  0  0  0  0
 21 22  1  0  0  0  0
 21 28  1  0  0  0  0
 22 23  2  0  0  0  0
 22 27  1  0  0  0  0
 23 24  1  0  0  0  0
 23 40  1  0  0  0  0
 24 25  2  0  0  0  0
 25 26  1  0  0  0  0
 25 41  1  0  0  0  0
 26 27  2  0  0  0  0
 27 42  1  0  0  0  0
 28 29  2  0  0  0  0
 28 43  1  0  0  0  0
 29 30  1  0  0  0  0
M  END
$$$$
