
 OpenBabel01122422403D

 39 42  0  0  0  0  0  0  0  0999 V2000
    2.8843    0.5386    0.8080 O   0  0  0  0  0  0  0  0  0  0  0  0
    2.3013   -0.1621   -0.0139 C   0  0  0  0  0  0  0  0  0  0  0  0
    0.8640    0.0922   -0.2830 C   0  0  0  0  0  0  0  0  0  0  0  0
    0.3943    1.4057   -0.1679 C   0  0  0  0  0  0  0  0  0  0  0  0
   -0.9321    1.7019   -0.4793 C   0  0  0  0  0  0  0  0  0  0  0  0
   -1.7927    0.6867   -0.8961 C   0  0  0  0  0  0  0  0  0  0  0  0
   -1.3381   -0.6299   -0.9756 C   0  0  0  0  0  0  0  0  0  0  0  0
   -0.0139   -0.9328   -0.6557 C   0  0  0  0  0  0  0  0  0  0  0  0
    3.0564   -1.1879   -0.7739 C   0  0  0  0  0  0  0  0  0  0  0  0
    2.7816   -1.4412   -2.1339 C   0  0  0  0  0  0  0  0  0  0  0  0
    3.5437   -2.3672   -2.8667 C   0  0  0  0  0  0  0  0  0  0  0  0
    3.3384   -2.6262   -4.3110 C   0  0  0  0  0  0  0  0  0  0  0  0
    3.6133   -3.9076   -4.8353 C   0  0  0  0  0  0  0  0  0  0  0  0
    3.6628   -4.1457   -6.2059 C   0  0  0  0  0  0  0  0  0  0  0  0
    3.3342   -3.1223   -7.0766 C   0  0  0  0  0  0  0  0  0  0  0  0
    3.3951   -3.4204   -8.4396 O   0  0  0  0  0  0  0  0  0  0  0  0
    2.8157   -2.5460   -9.3515 C   0  0  0  0  0  0  0  0  0  0  0  0
    2.7286   -2.8289  -10.5414 O   0  0  0  0  0  0  0  0  0  0  0  0
    2.3551   -1.3496   -8.8606 N   0  0  0  0  0  0  0  0  0  0  0  0
    2.4350   -0.9087   -7.5720 C   0  0  0  0  0  0  0  0  0  0  0  0
    2.0825    0.2194   -7.2375 O   0  0  0  0  0  0  0  0  0  0  0  0
    2.9315   -1.8849   -6.5957 C   0  0  0  0  0  0  0  0  0  0  0  0
    2.9577   -1.6199   -5.2197 C   0  0  0  0  0  0  0  0  0  0  0  0
    4.5891   -3.0268   -2.1866 C   0  0  0  0  0  0  0  0  0  0  0  0
    4.8676   -2.7800   -0.8435 C   0  0  0  0  0  0  0  0  0  0  0  0
    4.1061   -1.8565   -0.1458 C   0  0  0  0  0  0  0  0  0  0  0  0
    4.4058   -1.6439    1.1426 F   0  0  0  0  0  0  0  0  0  0  0  0
    1.0653    2.2011    0.1518 H   0  0  0  0  0  0  0  0  0  0  0  0
   -1.2907    2.7252   -0.4017 H   0  0  0  0  0  0  0  0  0  0  0  0
   -2.8229    0.9220   -1.1515 H   0  0  0  0  0  0  0  0  0  0  0  0
   -2.0168   -1.4199   -1.2876 H   0  0  0  0  0  0  0  0  0  0  0  0
    0.3156   -1.9672   -0.7039 H   0  0  0  0  0  0  0  0  0  0  0  0
    1.9803   -0.8965   -2.6293 H   0  0  0  0  0  0  0  0  0  0  0  0
    3.8228   -4.7433   -4.1693 H   0  0  0  0  0  0  0  0  0  0  0  0
    3.9454   -5.1242   -6.5824 H   0  0  0  0  0  0  0  0  0  0  0  0
    1.9538   -0.7278   -9.5458 H   0  0  0  0  0  0  0  0  0  0  0  0
    2.6965   -0.6211   -4.8750 H   0  0  0  0  0  0  0  0  0  0  0  0
    5.2352   -3.7301   -2.7110 H   0  0  0  0  0  0  0  0  0  0  0  0
    5.6872   -3.2907   -0.3484 H   0  0  0  0  0  0  0  0  0  0  0  0
  1  2  2  0  0  0  0
  2  3  1  0  0  0  0
  2  9  1  0  0  0  0
  3  4  2  0  0  0  0
  3  8  1  0  0  0  0
  4  5  1  0  0  0  0
  4 28  1  0  0  0  0
  5  6  2  0  0  0  0
  5 29  1  0  0  0  0
  6  7  1  0  0  0  0
  6 30  1  0  0  0  0
  7  8  2  0  0  0  0
  7 31  1  0  0  0  0
  8 32  1  0  0  0  0
  9 10  2  0  0  0  0
  9 26  1  0  0  0  0
 10 11  1  0  0  0  0
 10 33  1  0  0  0  0
 11 12  1  0  0  0  0
 11 24  2  0  0  0  0
 12 13  2  0  0  0  0
 12 23  1  0  0  0  0
 13 14  1  0  0  0  0
 13 34  1  0  0  0  0
 14 15  2  0  0  0  0
 14 35  1  0  0  0  0
 15 16  1  0  0  0  0
 15 22  1  0  0  0  0
 16 17  1  0  0  0  0
 17 18  2  0  0  0  0
 17 19  1  0  0  0  0
 19 20  1  0  0  0  0
 19 36  1  0  0  0  0
 20 21  2  0  0  0  0
 20 22  1  0  0  0  0
 22 23  2  0  0  0  0
 23 37  1  0  0  0  0
 24 25  1  0  0  0  0
 24 38  1  0  0  0  0
 25 26  2  0  0  0  0
 25 39  1  0  0  0  0
 26 27  1  0  0  0  0
M  END
$$$$
