
 OpenBabel01122422403D

 49 52  0  0  0  0  0  0  0  0999 V2000
    0.9772   -1.5711   -3.1177 C   0  0  0  0  0  0  0  0  0  0  0  0
    0.0243   -1.1139   -2.1170 N   0  0  0  0  0  0  0  0  0  0  0  0
   -0.7127   -2.0670   -1.4189 C   0  0  0  0  0  0  0  0  0  0  0  0
   -0.5559   -3.2811   -1.5633 O   0  0  0  0  0  0  0  0  0  0  0  0
   -1.7625   -1.5762   -0.4658 C   0  0  0  0  0  0  0  0  0  0  0  0
   -2.6618   -2.6463    0.0977 C   0  0  0  0  0  0  0  0  0  0  0  0
   -3.9901   -2.1077    0.4327 N   0  0  0  0  0  0  0  0  0  0  0  0
   -5.0433   -3.0414    0.3858 C   0  0  0  0  0  0  0  0  0  0  0  0
   -4.9483   -4.1337   -0.3976 N   0  0  0  0  0  0  0  0  0  0  0  0
   -6.0501   -4.9247   -0.5039 C   0  0  0  0  0  0  0  0  0  0  0  0
   -5.9461   -6.1044   -1.4210 C   0  0  0  0  0  0  0  0  0  0  0  0
   -6.9364   -6.8155   -1.5828 O   0  0  0  0  0  0  0  0  0  0  0  0
   -4.6935   -6.2998   -1.9847 N   0  0  0  0  0  0  0  0  0  0  0  0
   -4.3239   -7.3532   -2.8467 C   0  0  0  0  0  0  0  0  0  0  0  0
   -5.2599   -8.1601   -3.5051 C   0  0  0  0  0  0  0  0  0  0  0  0
   -4.8478   -9.2355   -4.2960 C   0  0  0  0  0  0  0  0  0  0  0  0
   -3.4946   -9.5044   -4.4319 C   0  0  0  0  0  0  0  0  0  0  0  0
   -3.1000  -10.5539   -5.1648 F   0  0  0  0  0  0  0  0  0  0  0  0
   -2.5456   -8.6966   -3.8168 C   0  0  0  0  0  0  0  0  0  0  0  0
   -2.9591   -7.6093   -3.0370 C   0  0  0  0  0  0  0  0  0  0  0  0
   -7.2433   -4.6860    0.1671 C   0  0  0  0  0  0  0  0  0  0  0  0
   -7.3236   -3.5644    0.9768 C   0  0  0  0  0  0  0  0  0  0  0  0
   -6.2188   -2.7224    1.0671 C   0  0  0  0  0  0  0  0  0  0  0  0
   -1.8624   -0.2630   -0.2016 C   0  0  0  0  0  0  0  0  0  0  0  0
   -1.0031    0.7072   -0.8648 C   0  0  0  0  0  0  0  0  0  0  0  0
   -1.1181    2.0674   -0.5449 C   0  0  0  0  0  0  0  0  0  0  0  0
   -0.3274    3.0100   -1.1932 C   0  0  0  0  0  0  0  0  0  0  0  0
    0.5723    2.6001   -2.1715 C   0  0  0  0  0  0  0  0  0  0  0  0
    0.6900    1.2451   -2.4955 C   0  0  0  0  0  0  0  0  0  0  0  0
   -0.0904    0.2817   -1.8405 C   0  0  0  0  0  0  0  0  0  0  0  0
    0.9475   -2.6563   -3.2492 H   0  0  0  0  0  0  0  0  0  0  0  0
    1.9900   -1.2952   -2.8077 H   0  0  0  0  0  0  0  0  0  0  0  0
    0.7375   -1.1146   -4.0835 H   0  0  0  0  0  0  0  0  0  0  0  0
   -2.2112   -3.0379    1.0179 H   0  0  0  0  0  0  0  0  0  0  0  0
   -2.7349   -3.4746   -0.6139 H   0  0  0  0  0  0  0  0  0  0  0  0
   -4.2660   -1.3586   -0.2001 H   0  0  0  0  0  0  0  0  0  0  0  0
   -3.9664   -5.6731   -1.6445 H   0  0  0  0  0  0  0  0  0  0  0  0
   -6.3258   -7.9683   -3.4301 H   0  0  0  0  0  0  0  0  0  0  0  0
   -5.5796   -9.8629   -4.7945 H   0  0  0  0  0  0  0  0  0  0  0  0
   -1.4918   -8.9261   -3.9383 H   0  0  0  0  0  0  0  0  0  0  0  0
   -2.2029   -6.9944   -2.5549 H   0  0  0  0  0  0  0  0  0  0  0  0
   -8.0896   -5.3577    0.0575 H   0  0  0  0  0  0  0  0  0  0  0  0
   -8.2351   -3.3444    1.5250 H   0  0  0  0  0  0  0  0  0  0  0  0
   -6.2665   -1.8319    1.6887 H   0  0  0  0  0  0  0  0  0  0  0  0
   -2.6039    0.1110    0.4947 H   0  0  0  0  0  0  0  0  0  0  0  0
   -1.8239    2.3986    0.2137 H   0  0  0  0  0  0  0  0  0  0  0  0
   -0.4153    4.0628   -0.9374 H   0  0  0  0  0  0  0  0  0  0  0  0
    1.1896    3.3347   -2.6832 H   0  0  0  0  0  0  0  0  0  0  0  0
    1.4083    0.9727   -3.2622 H   0  0  0  0  0  0  0  0  0  0  0  0
  1  2  1  0  0  0  0
  1 31  1  0  0  0  0
  1 32  1  0  0  0  0
  1 33  1  0  0  0  0
  2  3  1  0  0  0  0
  2 30  1  0  0  0  0
  3  4  2  0  0  0  0
  3  5  1  0  0  0  0
  5  6  1  0  0  0  0
  5 24  2  0  0  0  0
  6  7  1  0  0  0  0
  6 34  1  0  0  0  0
  6 35  1  0  0  0  0
  7  8  1  0  0  0  0
  7 36  1  0  0  0  0
  8  9  2  0  0  0  0
  8 23  1  0  0  0  0
  9 10  1  0  0  0  0
 10 11  1  0  0  0  0
 10 21  2  0  0  0  0
 11 12  2  0  0  0  0
 11 13  1  0  0  0  0
 13 14  1  0  0  0  0
 13 37  1  0  0  0  0
 14 15  2  0  0  0  0
 14 20  1  0  0  0  0
 15 16  1  0  0  0  0
 15 38  1  0  0  0  0
 16 17  2  0  0  0  0
 16 39  1  0  0  0  0
 17 18  1  0  0  0  0
 17 19  1  0  0  0  0
 19 20  2  0  0  0  0
 19 40  1  0  0  0  0
 20 41  1  0  0  0  0
 21 22  1  0  0  0  0
 21 42  1  0  0  0  0
 22 23  2  0  0  0  0
 22 43  1  0  0  0  0
 23 44  1  0  0  0  0
 24 25  1  0  0  0  0
 24 45  1  0  0  0  0
 25 26  2  0  0  0  0
 25 30  1  0  0  0  0
 26 27  1  0  0  0  0
 26 46  1  0  0  0  0
 27 28  2  0  0  0  0
 27 47  1  0  0  0  0
 28 29  1  0  0  0  0
 28 48  1  0  0  0  0
 29 30  2  0  0  0  0
 29 49  1  0  0  0  0
M  END
$$$$
