
 OpenBabel01122422403D

 47 50  0  0  0  0  0  0  0  0999 V2000
    6.4745   -2.1395    2.6886 N   0  0  0  0  0  0  0  0  0  0  0  0
    5.8845   -3.1054    1.9308 C   0  0  0  0  0  0  0  0  0  0  0  0
    6.3662   -4.2345    1.9102 O   0  0  0  0  0  0  0  0  0  0  0  0
    4.6551   -2.7666    1.1521 C   0  0  0  0  0  0  0  0  0  0  0  0
    4.0438   -3.8392    0.4709 C   0  0  0  0  0  0  0  0  0  0  0  0
    2.8653   -3.6611   -0.2559 C   0  0  0  0  0  0  0  0  0  0  0  0
    2.3029   -2.3967   -0.3550 C   0  0  0  0  0  0  0  0  0  0  0  0
    2.9225   -1.3144    0.2683 C   0  0  0  0  0  0  0  0  0  0  0  0
    4.0691   -1.4905    1.0711 C   0  0  0  0  0  0  0  0  0  0  0  0
    4.6416   -0.4234    1.7528 O   0  0  0  0  0  0  0  0  0  0  0  0
    3.8131    0.5900    2.1889 C   0  0  0  0  0  0  0  0  0  0  0  0
    2.5705    0.3383    2.7626 C   0  0  0  0  0  0  0  0  0  0  0  0
    1.6885    1.3910    2.9988 C   0  0  0  0  0  0  0  0  0  0  0  0
    2.0525    2.7149    2.7339 C   0  0  0  0  0  0  0  0  0  0  0  0
    1.1553    3.8054    2.8628 N   0  0  0  0  0  0  0  0  0  0  0  0
   -0.2127    3.6981    3.0605 C   0  0  0  0  0  0  0  0  0  0  0  0
   -0.8133    2.6308    3.1188 O   0  0  0  0  0  0  0  0  0  0  0  0
   -0.9405    4.9422    3.1609 C   0  0  0  0  0  0  0  0  0  0  0  0
   -0.7293    6.1645    2.5521 C   0  0  0  0  0  0  0  0  0  0  0  0
   -1.9242    6.8762    2.7460 C   0  0  0  0  0  0  0  0  0  0  0  0
   -2.8206    6.1855    3.4464 N   0  0  0  0  0  0  0  0  0  0  0  0
   -2.1658    5.0509    3.8101 N   0  0  0  0  0  0  0  0  0  0  0  0
   -2.7420    4.1892    4.7825 C   0  0  0  0  0  0  0  0  0  0  0  0
   -4.1290    4.0527    4.8435 C   0  0  0  0  0  0  0  0  0  0  0  0
   -4.6503    3.1711    5.7752 C   0  0  0  0  0  0  0  0  0  0  0  0
   -3.9005    2.4711    6.6553 N   0  0  0  0  0  0  0  0  0  0  0  0
   -2.5644    2.6490    6.5936 C   0  0  0  0  0  0  0  0  0  0  0  0
   -1.9397    3.4849    5.6840 C   0  0  0  0  0  0  0  0  0  0  0  0
    3.3629    2.9693    2.3073 C   0  0  0  0  0  0  0  0  0  0  0  0
    4.2402    1.9080    2.0285 C   0  0  0  0  0  0  0  0  0  0  0  0
    7.2882   -2.3975    3.2301 H   0  0  0  0  0  0  0  0  0  0  0  0
    6.1134   -1.1982    2.7542 H   0  0  0  0  0  0  0  0  0  0  0  0
    4.4821   -4.8357    0.5162 H   0  0  0  0  0  0  0  0  0  0  0  0
    2.3935   -4.5090   -0.7463 H   0  0  0  0  0  0  0  0  0  0  0  0
    1.3814   -2.2476   -0.9128 H   0  0  0  0  0  0  0  0  0  0  0  0
    2.4706   -0.3329    0.1417 H   0  0  0  0  0  0  0  0  0  0  0  0
    2.2369   -0.6773    2.9603 H   0  0  0  0  0  0  0  0  0  0  0  0
    0.7074    1.1186    3.3721 H   0  0  0  0  0  0  0  0  0  0  0  0
    1.5365    4.7290    2.7130 H   0  0  0  0  0  0  0  0  0  0  0  0
    0.1115    6.4683    1.9430 H   0  0  0  0  0  0  0  0  0  0  0  0
   -2.1967    7.8560    2.3744 H   0  0  0  0  0  0  0  0  0  0  0  0
   -4.7874    4.5707    4.1541 H   0  0  0  0  0  0  0  0  0  0  0  0
   -5.7194    2.9883    5.8346 H   0  0  0  0  0  0  0  0  0  0  0  0
   -1.9872    2.0856    7.3215 H   0  0  0  0  0  0  0  0  0  0  0  0
   -0.8613    3.5843    5.7144 H   0  0  0  0  0  0  0  0  0  0  0  0
    3.7080    3.9861    2.1379 H   0  0  0  0  0  0  0  0  0  0  0  0
    5.2362    2.1155    1.6455 H   0  0  0  0  0  0  0  0  0  0  0  0
  1  2  1  0  0  0  0
  1 31  1  0  0  0  0
  1 32  1  0  0  0  0
  2  3  2  0  0  0  0
  2  4  1  0  0  0  0
  4  5  2  0  0  0  0
  4  9  1  0  0  0  0
  5  6  1  0  0  0  0
  5 33  1  0  0  0  0
  6  7  2  0  0  0  0
  6 34  1  0  0  0  0
  7  8  1  0  0  0  0
  7 35  1  0  0  0  0
  8  9  2  0  0  0  0
  8 36  1  0  0  0  0
  9 10  1  0  0  0  0
 10 11  1  0  0  0  0
 11 12  2  0  0  0  0
 11 30  1  0  0  0  0
 12 13  1  0  0  0  0
 12 37  1  0  0  0  0
 13 14  2  0  0  0  0
 13 38  1  0  0  0  0
 14 15  1  0  0  0  0
 14 29  1  0  0  0  0
 15 16  1  0  0  0  0
 15 39  1  0  0  0  0
 16 17  2  0  0  0  0
 16 18  1  0  0  0  0
 18 19  2  0  0  0  0
 18 22  1  0  0  0  0
 19 20  1  0  0  0  0
 19 40  1  0  0  0  0
 20 21  2  0  0  0  0
 20 41  1  0  0  0  0
 21 22  1  0  0  0  0
 22 23  1  0  0  0  0
 23 24  2  0  0  0  0
 23 28  1  0  0  0  0
 24 25  1  0  0  0  0
 24 42  1  0  0  0  0
 25 26  2  0  0  0  0
 25 43  1  0  0  0  0
 26 27  1  0  0  0  0
 27 28  2  0  0  0  0
 27 44  1  0  0  0  0
 28 45  1  0  0  0  0
 29 30  2  0  0  0  0
 29 46  1  0  0  0  0
 30 47  1  0  0  0  0
M  END
$$$$
