
 OpenBabel01122422403D

 47 50  0  0  0  0  0  0  0  0999 V2000
    5.1050   -2.4130    1.7082 C   0  0  0  0  0  0  0  0  0  0  0  0
    4.2382   -1.2301    1.4782 N   0  0  0  0  0  0  0  0  0  0  0  0
    3.0305   -1.2287    0.7638 C   0  0  0  0  0  0  0  0  0  0  0  0
    2.5825   -0.2071    0.2486 O   0  0  0  0  0  0  0  0  0  0  0  0
    2.2462   -2.5181    0.7167 C   0  0  0  0  0  0  0  0  0  0  0  0
    2.2558   -3.3504    1.7770 C   0  0  0  0  0  0  0  0  0  0  0  0
    1.6431   -4.6485    1.7312 C   0  0  0  0  0  0  0  0  0  0  0  0
    0.8948   -4.9926    0.6869 C   0  0  0  0  0  0  0  0  0  0  0  0
    0.6872   -4.1141   -0.3621 N   0  0  0  0  0  0  0  0  0  0  0  0
   -0.1743   -4.5352   -1.4683 C   0  0  0  0  0  0  0  0  0  0  0  0
    0.6098   -5.2784   -2.5269 C   0  0  0  0  0  0  0  0  0  0  0  0
    0.7715   -6.6704   -2.4629 C   0  0  0  0  0  0  0  0  0  0  0  0
    1.6092   -7.3116   -3.3705 C   0  0  0  0  0  0  0  0  0  0  0  0
    1.7875   -8.6363   -3.2758 F   0  0  0  0  0  0  0  0  0  0  0  0
    2.2814   -6.5985   -4.3554 C   0  0  0  0  0  0  0  0  0  0  0  0
    2.0991   -5.2236   -4.4523 C   0  0  0  0  0  0  0  0  0  0  0  0
    1.2645   -4.5660   -3.5434 C   0  0  0  0  0  0  0  0  0  0  0  0
    1.3309   -2.8632   -0.4300 C   0  0  0  0  0  0  0  0  0  0  0  0
    1.1639   -2.0908   -1.3765 O   0  0  0  0  0  0  0  0  0  0  0  0
    5.0161   -0.0172    1.5938 C   0  0  0  0  0  0  0  0  0  0  0  0
    5.7698    0.3340    0.4745 C   0  0  0  0  0  0  0  0  0  0  0  0
    7.0908    0.6223    0.5320 N   0  0  0  0  0  0  0  0  0  0  0  0
    7.6543    0.6351    1.7617 C   0  0  0  0  0  0  0  0  0  0  0  0
    6.9438    0.5343    2.9599 C   0  0  0  0  0  0  0  0  0  0  0  0
    7.5470    0.6484    4.2265 C   0  0  0  0  0  0  0  0  0  0  0  0
    6.7734    0.5744    5.3859 C   0  0  0  0  0  0  0  0  0  0  0  0
    5.4074    0.3630    5.3018 C   0  0  0  0  0  0  0  0  0  0  0  0
    4.8062    0.1825    4.0531 C   0  0  0  0  0  0  0  0  0  0  0  0
    5.5679    0.2527    2.8671 C   0  0  0  0  0  0  0  0  0  0  0  0
    4.6567   -3.3590    1.4146 H   0  0  0  0  0  0  0  0  0  0  0  0
    5.3817   -2.4549    2.7682 H   0  0  0  0  0  0  0  0  0  0  0  0
    6.0194   -2.3174    1.1092 H   0  0  0  0  0  0  0  0  0  0  0  0
    2.8003   -3.1193    2.6859 H   0  0  0  0  0  0  0  0  0  0  0  0
    1.8419   -5.3504    2.5390 H   0  0  0  0  0  0  0  0  0  0  0  0
    0.4319   -5.9721    0.6235 H   0  0  0  0  0  0  0  0  0  0  0  0
   -0.6696   -3.6626   -1.9127 H   0  0  0  0  0  0  0  0  0  0  0  0
   -0.9790   -5.1684   -1.0818 H   0  0  0  0  0  0  0  0  0  0  0  0
    0.2759   -7.2624   -1.7004 H   0  0  0  0  0  0  0  0  0  0  0  0
    2.9484   -7.1178   -5.0357 H   0  0  0  0  0  0  0  0  0  0  0  0
    2.6166   -4.6507   -5.2177 H   0  0  0  0  0  0  0  0  0  0  0  0
    1.1496   -3.4844   -3.6119 H   0  0  0  0  0  0  0  0  0  0  0  0
    5.3616    0.2324   -0.5292 H   0  0  0  0  0  0  0  0  0  0  0  0
    8.7359    0.7277    1.7604 H   0  0  0  0  0  0  0  0  0  0  0  0
    8.6194    0.8105    4.3131 H   0  0  0  0  0  0  0  0  0  0  0  0
    7.2494    0.6885    6.3630 H   0  0  0  0  0  0  0  0  0  0  0  0
    4.7962    0.3344    6.2040 H   0  0  0  0  0  0  0  0  0  0  0  0
    3.7337    0.0202    3.9982 H   0  0  0  0  0  0  0  0  0  0  0  0
  1  2  1  0  0  0  0
  1 30  1  0  0  0  0
  1 31  1  0  0  0  0
  1 32  1  0  0  0  0
  2  3  1  0  0  0  0
  2 20  1  0  0  0  0
  3  4  2  0  0  0  0
  3  5  1  0  0  0  0
  5  6  2  0  0  0  0
  5 18  1  0  0  0  0
  6  7  1  0  0  0  0
  6 33  1  0  0  0  0
  7  8  2  0  0  0  0
  7 34  1  0  0  0  0
  8  9  1  0  0  0  0
  8 35  1  0  0  0  0
  9 10  1  0  0  0  0
  9 18  1  0  0  0  0
 10 11  1  0  0  0  0
 10 36  1  0  0  0  0
 10 37  1  0  0  0  0
 11 12  2  0  0  0  0
 11 17  1  0  0  0  0
 12 13  1  0  0  0  0
 12 38  1  0  0  0  0
 13 14  1  0  0  0  0
 13 15  2  0  0  0  0
 15 16  1  0  0  0  0
 15 39  1  0  0  0  0
 16 17  2  0  0  0  0
 16 40  1  0  0  0  0
 17 41  1  0  0  0  0
 18 19  2  0  0  0  0
 20 21  2  0  0  0  0
 20 29  1  0  0  0  0
 21 22  1  0  0  0  0
 21 42  1  0  0  0  0
 22 23  2  0  0  0  0
 23 24  1  0  0  0  0
 23 43  1  0  0  0  0
 24 25  2  0  0  0  0
 24 29  1  0  0  0  0
 25 26  1  0  0  0  0
 25 44  1  0  0  0  0
 26 27  2  0  0  0  0
 26 45  1  0  0  0  0
 27 28  1  0  0  0  0
 27 46  1  0  0  0  0
 28 29  2  0  0  0  0
 28 47  1  0  0  0  0
M  END
$$$$
