
 OpenBabel01122422403D

 40 43  0  0  0  0  0  0  0  0999 V2000
    1.0041    0.3538   -0.1199 O   0  0  0  0  0  0  0  0  0  0  0  0
    2.1942    0.0737    0.0015 C   0  0  0  0  0  0  0  0  0  0  0  0
    2.8235   -0.9983   -0.5803 N   0  0  0  0  0  0  0  0  0  0  0  0
    2.2331   -1.9090   -1.4411 C   0  0  0  0  0  0  0  0  0  0  0  0
    2.9207   -3.0455   -1.6335 N   0  0  0  0  0  0  0  0  0  0  0  0
    2.3554   -3.9934   -2.4152 C   0  0  0  0  0  0  0  0  0  0  0  0
    3.0973   -5.2664   -2.5173 C   0  0  0  0  0  0  0  0  0  0  0  0
    3.8612   -5.7447   -1.4353 C   0  0  0  0  0  0  0  0  0  0  0  0
    4.5424   -6.9584   -1.5189 C   0  0  0  0  0  0  0  0  0  0  0  0
    5.2507   -7.3905   -0.4672 F   0  0  0  0  0  0  0  0  0  0  0  0
    4.4945   -7.7299   -2.6684 C   0  0  0  0  0  0  0  0  0  0  0  0
    3.7524   -7.2681   -3.7422 C   0  0  0  0  0  0  0  0  0  0  0  0
    3.6923   -7.9965   -4.8646 F   0  0  0  0  0  0  0  0  0  0  0  0
    3.0620   -6.0580   -3.6793 C   0  0  0  0  0  0  0  0  0  0  0  0
    1.1388   -3.7918   -3.0395 C   0  0  0  0  0  0  0  0  0  0  0  0
    0.5337   -2.5829   -2.8113 C   0  0  0  0  0  0  0  0  0  0  0  0
    1.0560   -1.6428   -2.0146 N   0  0  0  0  0  0  0  0  0  0  0  0
    3.0205    0.9381    0.9055 C   0  0  0  0  0  0  0  0  0  0  0  0
    2.3194    1.9056    1.6565 C   0  0  0  0  0  0  0  0  0  0  0  0
    2.9909    2.7825    2.4988 C   0  0  0  0  0  0  0  0  0  0  0  0
    4.3746    2.7047    2.5909 C   0  0  0  0  0  0  0  0  0  0  0  0
    5.0866    1.7401    1.8581 C   0  0  0  0  0  0  0  0  0  0  0  0
    6.4825    1.6692    1.9572 C   0  0  0  0  0  0  0  0  0  0  0  0
    7.1839    0.7091    1.2415 C   0  0  0  0  0  0  0  0  0  0  0  0
    6.4558   -0.1509    0.4514 C   0  0  0  0  0  0  0  0  0  0  0  0
    7.0572   -1.1284   -0.2792 O   0  0  0  0  0  0  0  0  0  0  0  0
    5.1184   -0.1134    0.3277 N   0  0  0  0  0  0  0  0  0  0  0  0
    4.4176    0.8253    1.0080 C   0  0  0  0  0  0  0  0  0  0  0  0
    3.7919   -1.1986   -0.3466 H   0  0  0  0  0  0  0  0  0  0  0  0
    3.9247   -5.1764   -0.5089 H   0  0  0  0  0  0  0  0  0  0  0  0
    5.0265   -8.6716   -2.7265 H   0  0  0  0  0  0  0  0  0  0  0  0
    2.5095   -5.7440   -4.5604 H   0  0  0  0  0  0  0  0  0  0  0  0
    0.6578   -4.5394   -3.6538 H   0  0  0  0  0  0  0  0  0  0  0  0
   -0.4218   -2.3308   -3.2599 H   0  0  0  0  0  0  0  0  0  0  0  0
    1.2344    1.9748    1.5811 H   0  0  0  0  0  0  0  0  0  0  0  0
    2.4374    3.5208    3.0715 H   0  0  0  0  0  0  0  0  0  0  0  0
    4.8949    3.4023    3.2444 H   0  0  0  0  0  0  0  0  0  0  0  0
    7.0287    2.3628    2.5925 H   0  0  0  0  0  0  0  0  0  0  0  0
    8.2627    0.6498    1.3153 H   0  0  0  0  0  0  0  0  0  0  0  0
    8.0152   -1.0496   -0.1653 H   0  0  0  0  0  0  0  0  0  0  0  0
  1  2  2  0  0  0  0
  2  3  1  0  0  0  0
  2 18  1  0  0  0  0
  3  4  1  0  0  0  0
  3 29  1  0  0  0  0
  4  5  2  0  0  0  0
  4 17  1  0  0  0  0
  5  6  1  0  0  0  0
  6  7  1  0  0  0  0
  6 15  2  0  0  0  0
  7  8  2  0  0  0  0
  7 14  1  0  0  0  0
  8  9  1  0  0  0  0
  8 30  1  0  0  0  0
  9 10  1  0  0  0  0
  9 11  2  0  0  0  0
 11 12  1  0  0  0  0
 11 31  1  0  0  0  0
 12 13  1  0  0  0  0
 12 14  2  0  0  0  0
 14 32  1  0  0  0  0
 15 16  1  0  0  0  0
 15 33  1  0  0  0  0
 16 17  2  0  0  0  0
 16 34  1  0  0  0  0
 18 19  2  0  0  0  0
 18 28  1  0  0  0  0
 19 20  1  0  0  0  0
 19 35  1  0  0  0  0
 20 21  2  0  0  0  0
 20 36  1  0  0  0  0
 21 22  1  0  0  0  0
 21 37  1  0  0  0  0
 22 23  2  0  0  0  0
 22 28  1  0  0  0  0
 23 24  1  0  0  0  0
 23 38  1  0  0  0  0
 24 25  2  0  0  0  0
 24 39  1  0  0  0  0
 25 26  1  0  0  0  0
 25 27  1  0  0  0  0
 26 40  1  0  0  0  0
 27 28  2  0  0  0  0
M  END
$$$$
