
 OpenBabel01122422353D

 42 45  0  0  0  0  0  0  0  0999 V2000
    1.0540    0.2973    0.1637 O   0  0  0  0  0  0  0  0  0  0  0  0
    2.2511    0.0505    0.0632 C   0  0  0  0  0  0  0  0  0  0  0  0
    2.8816   -0.4862   -1.0419 N   0  0  0  0  0  0  0  0  0  0  0  0
    2.2673   -0.7742   -2.2483 C   0  0  0  0  0  0  0  0  0  0  0  0
    1.1070   -0.2539   -2.6750 C   0  0  0  0  0  0  0  0  0  0  0  0
    0.5076   -0.6185   -3.9460 C   0  0  0  0  0  0  0  0  0  0  0  0
   -0.7472   -0.0091   -4.4136 C   0  0  0  0  0  0  0  0  0  0  0  0
   -1.9765   -0.6188   -4.1626 C   0  0  0  0  0  0  0  0  0  0  0  0
   -3.1247    0.0270   -4.5897 C   0  0  0  0  0  0  0  0  0  0  0  0
   -3.1241    1.2143   -5.2337 N   0  0  0  0  0  0  0  0  0  0  0  0
   -1.9223    1.7893   -5.4507 C   0  0  0  0  0  0  0  0  0  0  0  0
   -0.7195    1.2254   -5.0636 C   0  0  0  0  0  0  0  0  0  0  0  0
    1.1296   -1.5260   -4.7153 C   0  0  0  0  0  0  0  0  0  0  0  0
    2.3224   -2.0831   -4.3188 N   0  0  0  0  0  0  0  0  0  0  0  0
    2.9677   -1.7625   -3.1455 C   0  0  0  0  0  0  0  0  0  0  0  0
    4.0429   -2.2593   -2.8209 O   0  0  0  0  0  0  0  0  0  0  0  0
    3.0934    0.2758    1.2560 C   0  0  0  0  0  0  0  0  0  0  0  0
    2.5741   -0.1044    2.4987 C   0  0  0  0  0  0  0  0  0  0  0  0
    3.2919    0.1470    3.6688 C   0  0  0  0  0  0  0  0  0  0  0  0
    4.5184    0.8214    3.6022 C   0  0  0  0  0  0  0  0  0  0  0  0
    5.2324    1.0966    4.7935 N   0  0  0  0  0  0  0  0  0  0  0  0
    5.1383    0.4085    5.9851 C   0  0  0  0  0  0  0  0  0  0  0  0
    6.0317    1.0081    6.8403 C   0  0  0  0  0  0  0  0  0  0  0  0
    6.6429    2.0683    6.2356 N   0  0  0  0  0  0  0  0  0  0  0  0
    6.1490    2.0996    5.0166 C   0  0  0  0  0  0  0  0  0  0  0  0
    5.0145    1.2178    2.3522 C   0  0  0  0  0  0  0  0  0  0  0  0
    6.1944    1.8422    2.2375 F   0  0  0  0  0  0  0  0  0  0  0  0
    4.3200    0.9332    1.1759 C   0  0  0  0  0  0  0  0  0  0  0  0
    3.8103   -0.8874   -0.9339 H   0  0  0  0  0  0  0  0  0  0  0  0
    0.5610    0.4804   -2.0864 H   0  0  0  0  0  0  0  0  0  0  0  0
   -2.0455   -1.5636   -3.6342 H   0  0  0  0  0  0  0  0  0  0  0  0
   -4.1070   -0.4024   -4.4143 H   0  0  0  0  0  0  0  0  0  0  0  0
   -1.9523    2.7507   -5.9556 H   0  0  0  0  0  0  0  0  0  0  0  0
    0.2137    1.7444   -5.2540 H   0  0  0  0  0  0  0  0  0  0  0  0
    0.7410   -1.8548   -5.6751 H   0  0  0  0  0  0  0  0  0  0  0  0
    2.7826   -2.7664   -4.9084 H   0  0  0  0  0  0  0  0  0  0  0  0
    1.5947   -0.5778    2.5575 H   0  0  0  0  0  0  0  0  0  0  0  0
    2.8419   -0.1403    4.6165 H   0  0  0  0  0  0  0  0  0  0  0  0
    4.5132   -0.4627    6.1134 H   0  0  0  0  0  0  0  0  0  0  0  0
    6.2695    0.7242    7.8575 H   0  0  0  0  0  0  0  0  0  0  0  0
    6.3913    2.8503    4.2763 H   0  0  0  0  0  0  0  0  0  0  0  0
    4.7301    1.2623    0.2264 H   0  0  0  0  0  0  0  0  0  0  0  0
  1  2  2  0  0  0  0
  2  3  1  0  0  0  0
  2 17  1  0  0  0  0
  3  4  1  0  0  0  0
  3 29  1  0  0  0  0
  4  5  2  0  0  0  0
  4 15  1  0  0  0  0
  5  6  1  0  0  0  0
  5 30  1  0  0  0  0
  6  7  1  0  0  0  0
  6 13  2  0  0  0  0
  7  8  2  0  0  0  0
  7 12  1  0  0  0  0
  8  9  1  0  0  0  0
  8 31  1  0  0  0  0
  9 10  2  0  0  0  0
  9 32  1  0  0  0  0
 10 11  1  0  0  0  0
 11 12  2  0  0  0  0
 11 33  1  0  0  0  0
 12 34  1  0  0  0  0
 13 14  1  0  0  0  0
 13 35  1  0  0  0  0
 14 15  1  0  0  0  0
 14 36  1  0  0  0  0
 15 16  2  0  0  0  0
 17 18  2  0  0  0  0
 17 28  1  0  0  0  0
 18 19  1  0  0  0  0
 18 37  1  0  0  0  0
 19 20  2  0  0  0  0
 19 38  1  0  0  0  0
 20 21  1  0  0  0  0
 20 26  1  0  0  0  0
 21 22  1  0  0  0  0
 21 25  1  0  0  0  0
 22 23  2  0  0  0  0
 22 39  1  0  0  0  0
 23 24  1  0  0  0  0
 23 40  1  0  0  0  0
 24 25  2  0  0  0  0
 25 41  1  0  0  0  0
 26 27  1  0  0  0  0
 26 28  2  0  0  0  0
 28 42  1  0  0  0  0
M  END
$$$$
