
 OpenBabel01122422403D

 47 50  0  0  0  0  0  0  0  0999 V2000
    0.9418   -0.1660    0.0444 O   0  0  0  0  0  0  0  0  0  0  0  0
    2.1605   -0.1109   -0.0810 C   0  0  0  0  0  0  0  0  0  0  0  0
    2.8553   -0.8376   -1.0194 N   0  0  0  0  0  0  0  0  0  0  0  0
    2.1809   -1.7657   -1.8982 C   0  0  0  0  0  0  0  0  0  0  0  0
    2.9339   -1.9078   -3.1944 C   0  0  0  0  0  0  0  0  0  0  0  0
    3.4422   -3.1421   -3.6047 C   0  0  0  0  0  0  0  0  0  0  0  0
    4.1123   -3.2494   -4.8212 C   0  0  0  0  0  0  0  0  0  0  0  0
    4.2772   -2.1260   -5.6368 C   0  0  0  0  0  0  0  0  0  0  0  0
    3.7705   -0.8684   -5.2653 C   0  0  0  0  0  0  0  0  0  0  0  0
    3.9035    0.3145   -6.1423 C   0  0  0  0  0  0  0  0  0  0  0  0
    4.0828    1.6112   -5.6381 C   0  0  0  0  0  0  0  0  0  0  0  0
    4.1752    2.7063   -6.4980 C   0  0  0  0  0  0  0  0  0  0  0  0
    4.0969    2.4791   -7.8599 C   0  0  0  0  0  0  0  0  0  0  0  0
    3.9324    1.2577   -8.4010 N   0  0  0  0  0  0  0  0  0  0  0  0
    3.8347    0.2173   -7.5352 C   0  0  0  0  0  0  0  0  0  0  0  0
    3.1035   -0.7865   -4.0295 C   0  0  0  0  0  0  0  0  0  0  0  0
    2.9948    0.6863    0.7956 C   0  0  0  0  0  0  0  0  0  0  0  0
    2.6940    1.0749    2.0968 C   0  0  0  0  0  0  0  0  0  0  0  0
    1.4943    0.7389    2.8919 C   0  0  0  0  0  0  0  0  0  0  0  0
    1.8380    0.2133    4.0975 F   0  0  0  0  0  0  0  0  0  0  0  0
    0.7430    1.8425    3.1421 F   0  0  0  0  0  0  0  0  0  0  0  0
    3.8074    1.7528    2.5816 N   0  0  0  0  0  0  0  0  0  0  0  0
    4.1039    2.3302    3.8539 C   0  0  0  0  0  0  0  0  0  0  0  0
    5.4500    2.5414    4.1916 C   0  0  0  0  0  0  0  0  0  0  0  0
    5.7537    3.0795    5.4310 C   0  0  0  0  0  0  0  0  0  0  0  0
    4.8244    3.4373    6.3367 N   0  0  0  0  0  0  0  0  0  0  0  0
    3.5361    3.2506    5.9841 C   0  0  0  0  0  0  0  0  0  0  0  0
    3.1285    2.7068    4.7753 C   0  0  0  0  0  0  0  0  0  0  0  0
    4.7796    1.8169    1.6224 N   0  0  0  0  0  0  0  0  0  0  0  0
    4.2648    1.2254    0.5541 C   0  0  0  0  0  0  0  0  0  0  0  0
    3.8565   -0.9389   -0.9272 H   0  0  0  0  0  0  0  0  0  0  0  0
    1.1583   -1.4305   -2.1007 H   0  0  0  0  0  0  0  0  0  0  0  0
    2.1178   -2.7228   -1.3691 H   0  0  0  0  0  0  0  0  0  0  0  0
    3.3135   -4.0297   -2.9897 H   0  0  0  0  0  0  0  0  0  0  0  0
    4.5013   -4.2124   -5.1435 H   0  0  0  0  0  0  0  0  0  0  0  0
    4.8145   -2.2519   -6.5750 H   0  0  0  0  0  0  0  0  0  0  0  0
    4.1576    1.7878   -4.5675 H   0  0  0  0  0  0  0  0  0  0  0  0
    4.3049    3.7112   -6.1123 H   0  0  0  0  0  0  0  0  0  0  0  0
    4.1673    3.2981   -8.5707 H   0  0  0  0  0  0  0  0  0  0  0  0
    3.6745   -0.7394   -8.0257 H   0  0  0  0  0  0  0  0  0  0  0  0
    2.6757    0.1619   -3.7075 H   0  0  0  0  0  0  0  0  0  0  0  0
    0.8446    0.0094    2.4094 H   0  0  0  0  0  0  0  0  0  0  0  0
    6.2613    2.2695    3.5225 H   0  0  0  0  0  0  0  0  0  0  0  0
    6.7850    3.2342    5.7349 H   0  0  0  0  0  0  0  0  0  0  0  0
    2.8056    3.5692    6.7236 H   0  0  0  0  0  0  0  0  0  0  0  0
    2.0678    2.6418    4.5937 H   0  0  0  0  0  0  0  0  0  0  0  0
    4.8544    1.1958   -0.3547 H   0  0  0  0  0  0  0  0  0  0  0  0
  1  2  2  0  0  0  0
  2  3  1  0  0  0  0
  2 17  1  0  0  0  0
  3  4  1  0  0  0  0
  3 31  1  0  0  0  0
  4  5  1  0  0  0  0
  4 32  1  0  0  0  0
  4 33  1  0  0  0  0
  5  6  2  0  0  0  0
  5 16  1  0  0  0  0
  6  7  1  0  0  0  0
  6 34  1  0  0  0  0
  7  8  2  0  0  0  0
  7 35  1  0  0  0  0
  8  9  1  0  0  0  0
  8 36  1  0  0  0  0
  9 10  1  0  0  0  0
  9 16  2  0  0  0  0
 10 11  2  0  0  0  0
 10 15  1  0  0  0  0
 11 12  1  0  0  0  0
 11 37  1  0  0  0  0
 12 13  2  0  0  0  0
 12 38  1  0  0  0  0
 13 14  1  0  0  0  0
 13 39  1  0  0  0  0
 14 15  2  0  0  0  0
 15 40  1  0  0  0  0
 16 41  1  0  0  0  0
 17 18  2  0  0  0  0
 17 30  1  0  0  0  0
 18 19  1  0  0  0  0
 18 22  1  0  0  0  0
 19 20  1  0  0  0  0
 19 21  1  0  0  0  0
 19 42  1  0  0  0  0
 22 23  1  0  0  0  0
 22 29  1  0  0  0  0
 23 24  2  0  0  0  0
 23 28  1  0  0  0  0
 24 25  1  0  0  0  0
 24 43  1  0  0  0  0
 25 26  2  0  0  0  0
 25 44  1  0  0  0  0
 26 27  1  0  0  0  0
 27 28  2  0  0  0  0
 27 45  1  0  0  0  0
 28 46  1  0  0  0  0
 29 30  2  0  0  0  0
 30 47  1  0  0  0  0
M  END
$$$$
