
 OpenBabel01122422403D

 48 51  0  0  1  0  0  0  0  0999 V2000
    0.9525   -0.1385   -0.0470 C   0  0  0  0  0  0  0  0  0  0  0  0
    2.4851   -0.0769   -0.1194 C   0  0  3  0  0  0  0  0  0  0  0  0
    2.9784   -0.7666   -1.3014 N   0  0  0  0  0  0  0  0  0  0  0  0
    3.2889   -2.1102   -1.2889 C   0  0  0  0  0  0  0  0  0  0  0  0
    3.1872   -2.8175   -0.2906 O   0  0  0  0  0  0  0  0  0  0  0  0
    3.7490   -2.6954   -2.5934 C   0  0  0  0  0  0  0  0  0  0  0  0
    4.0868   -4.0481   -2.6376 C   0  0  0  0  0  0  0  0  0  0  0  0
    4.3873   -4.6249   -3.8684 C   0  0  0  0  0  0  0  0  0  0  0  0
    4.3230   -3.8372   -5.0133 C   0  0  0  0  0  0  0  0  0  0  0  0
    4.4964   -4.4063   -6.3484 C   0  0  0  0  0  0  0  0  0  0  0  0
    4.3328   -3.6247   -7.4234 C   0  0  0  0  0  0  0  0  0  0  0  0
    4.0450   -2.1752   -7.2821 C   0  0  0  0  0  0  0  0  0  0  0  0
    3.9142   -1.4682   -8.2745 O   0  0  0  0  0  0  0  0  0  0  0  0
    3.9284   -1.6906   -6.0108 N   0  0  0  0  0  0  0  0  0  0  0  0
    4.0145   -2.4782   -4.8648 C   0  0  0  0  0  0  0  0  0  0  0  0
    3.7381   -1.8795   -3.6847 N   0  0  0  0  0  0  0  0  0  0  0  0
    2.9947    1.3537   -0.0738 C   0  0  0  0  0  0  0  0  0  0  0  0
    3.8323    1.7828    0.9644 C   0  0  0  0  0  0  0  0  0  0  0  0
    4.2230    3.1258    1.0677 C   0  0  0  0  0  0  0  0  0  0  0  0
    3.7914    4.0880    0.1400 C   0  0  0  0  0  0  0  0  0  0  0  0
    4.1258    5.5218    0.2911 C   0  0  0  0  0  0  0  0  0  0  0  0
    4.2835    6.3599   -0.8311 C   0  0  0  0  0  0  0  0  0  0  0  0
    4.6006    7.7107   -0.6969 C   0  0  0  0  0  0  0  0  0  0  0  0
    4.7878    8.2625    0.5661 C   0  0  0  0  0  0  0  0  0  0  0  0
    4.6290    7.4634    1.6993 C   0  0  0  0  0  0  0  0  0  0  0  0
    4.8262    8.0228    3.0008 C   0  0  0  0  0  0  0  0  0  0  0  0
    4.9948    8.4774    4.0599 N   0  0  0  0  0  0  0  0  0  0  0  0
    4.2871    6.1117    1.5615 C   0  0  0  0  0  0  0  0  0  0  0  0
    3.0173    3.6274   -0.9385 C   0  0  0  0  0  0  0  0  0  0  0  0
    2.6266    2.2888   -1.0471 C   0  0  0  0  0  0  0  0  0  0  0  0
    0.5964   -1.1741   -0.0803 H   0  0  0  0  0  0  0  0  0  0  0  0
    0.4804    0.3894   -0.8831 H   0  0  0  0  0  0  0  0  0  0  0  0
    0.5818    0.3133    0.8810 H   0  0  0  0  0  0  0  0  0  0  0  0
    2.8661   -0.6098    0.7614 H   0  0  0  0  0  0  0  0  0  0  0  0
    2.9897   -0.2961   -2.1996 H   0  0  0  0  0  0  0  0  0  0  0  0
    4.0772   -4.6526   -1.7350 H   0  0  0  0  0  0  0  0  0  0  0  0
    4.6213   -5.6847   -3.9254 H   0  0  0  0  0  0  0  0  0  0  0  0
    4.7088   -5.4646   -6.4519 H   0  0  0  0  0  0  0  0  0  0  0  0
    4.3983   -4.0062   -8.4355 H   0  0  0  0  0  0  0  0  0  0  0  0
    3.7185   -0.7115   -5.8947 H   0  0  0  0  0  0  0  0  0  0  0  0
    4.1845    1.0819    1.7198 H   0  0  0  0  0  0  0  0  0  0  0  0
    4.8720    3.4074    1.8942 H   0  0  0  0  0  0  0  0  0  0  0  0
    4.1597    5.9643   -1.8373 H   0  0  0  0  0  0  0  0  0  0  0  0
    4.7091    8.3313   -1.5845 H   0  0  0  0  0  0  0  0  0  0  0  0
    5.0569    9.3107    0.6612 H   0  0  0  0  0  0  0  0  0  0  0  0
    4.1388    5.5177    2.4625 H   0  0  0  0  0  0  0  0  0  0  0  0
    2.6728    4.3135   -1.7086 H   0  0  0  0  0  0  0  0  0  0  0  0
    2.0095    1.9941   -1.8918 H   0  0  0  0  0  0  0  0  0  0  0  0
  1  2  1  0  0  0  0
  1 31  1  0  0  0  0
  1 32  1  0  0  0  0
  1 33  1  0  0  0  0
  2  3  1  0  0  0  0
  2 17  1  0  0  0  0
  2 34  1  0  0  0  0
  3  4  1  0  0  0  0
  3 35  1  0  0  0  0
  4  5  2  0  0  0  0
  4  6  1  0  0  0  0
  6  7  2  0  0  0  0
  6 16  1  0  0  0  0
  7  8  1  0  0  0  0
  7 36  1  0  0  0  0
  8  9  2  0  0  0  0
  8 37  1  0  0  0  0
  9 10  1  0  0  0  0
  9 15  1  0  0  0  0
 10 11  2  0  0  0  0
 10 38  1  0  0  0  0
 11 12  1  0  0  0  0
 11 39  1  0  0  0  0
 12 13  2  0  0  0  0
 12 14  1  0  0  0  0
 14 15  1  0  0  0  0
 14 40  1  0  0  0  0
 15 16  2  0  0  0  0
 17 18  2  0  0  0  0
 17 30  1  0  0  0  0
 18 19  1  0  0  0  0
 18 41  1  0  0  0  0
 19 20  2  0  0  0  0
 19 42  1  0  0  0  0
 20 21  1  0  0  0  0
 20 29  1  0  0  0  0
 21 22  2  0  0  0  0
 21 28  1  0  0  0  0
 22 23  1  0  0  0  0
 22 43  1  0  0  0  0
 23 24  2  0  0  0  0
 23 44  1  0  0  0  0
 24 25  1  0  0  0  0
 24 45  1  0  0  0  0
 25 26  1  0  0  0  0
 25 28  2  0  0  0  0
 26 27  3  0  0  0  0
 28 46  1  0  0  0  0
 29 30  2  0  0  0  0
 29 47  1  0  0  0  0
 30 48  1  0  0  0  0
M  END
$$$$
