
 OpenBabel01122422403D

 49 52  0  0  1  0  0  0  0  0999 V2000
    3.0833    0.5836   -2.3865 O   0  0  0  0  0  0  0  0  0  0  0  0
    3.4879    0.5096   -1.2208 C   0  0  0  0  0  0  0  0  0  0  0  0
    3.2541    1.5046   -0.3312 N   0  0  0  0  0  0  0  0  0  0  0  0
    2.3704    2.5831   -0.7856 C   0  0  3  0  0  0  0  0  0  0  0  0
    1.5102    3.0941    0.3746 C   0  0  0  0  0  0  0  0  0  0  0  0
    1.6909    2.7023    1.5337 O   0  0  0  0  0  0  0  0  0  0  0  0
    0.4166    4.0876    0.0299 C   0  0  0  0  0  0  0  0  0  0  0  0
   -0.9746    3.5212   -0.1059 C   0  0  0  0  0  0  0  0  0  0  0  0
   -1.5464    2.7363    0.9042 C   0  0  0  0  0  0  0  0  0  0  0  0
   -2.8940    2.3720    0.8421 C   0  0  0  0  0  0  0  0  0  0  0  0
   -3.6852    2.7888   -0.2266 C   0  0  0  0  0  0  0  0  0  0  0  0
   -3.1223    3.5429   -1.2524 C   0  0  0  0  0  0  0  0  0  0  0  0
   -1.7745    3.9027   -1.1956 C   0  0  0  0  0  0  0  0  0  0  0  0
    3.1584    3.6615   -1.5222 C   0  0  0  0  0  0  0  0  0  0  0  0
    3.4638    3.5020   -2.8884 C   0  0  0  0  0  0  0  0  0  0  0  0
    4.1563    4.4825   -3.5956 C   0  0  0  0  0  0  0  0  0  0  0  0
    4.5465    5.6478   -2.9506 C   0  0  0  0  0  0  0  0  0  0  0  0
    4.2813    5.8073   -1.5915 C   0  0  0  0  0  0  0  0  0  0  0  0
    3.6163    4.8133   -0.8746 C   0  0  0  0  0  0  0  0  0  0  0  0
    4.1623   -0.7507   -0.8621 C   0  0  0  0  0  0  0  0  0  0  0  0
    3.7083   -1.8002   -1.6531 C   0  0  0  0  0  0  0  0  0  0  0  0
    4.4111   -2.9554   -1.7746 C   0  0  0  0  0  0  0  0  0  0  0  0
    3.9482   -3.7789   -2.7211 N   0  0  0  0  0  0  0  0  0  0  0  0
    4.6775   -4.8805   -2.9197 C   0  0  0  0  0  0  0  0  0  0  0  0
    5.7801   -5.1680   -2.1456 C   0  0  0  0  0  0  0  0  0  0  0  0
    6.4528   -6.3418   -2.3218 O   0  0  0  0  0  0  0  0  0  0  0  0
    6.2483   -4.3427   -1.1760 N   0  0  0  0  0  0  0  0  0  0  0  0
    5.5669   -3.1810   -0.9946 C   0  0  0  0  0  0  0  0  0  0  0  0
    5.9531   -2.1640   -0.0999 C   0  0  0  0  0  0  0  0  0  0  0  0
    5.2704   -0.9241   -0.0381 C   0  0  0  0  0  0  0  0  0  0  0  0
    3.4041    1.3983    0.6674 H   0  0  0  0  0  0  0  0  0  0  0  0
    1.6332    2.1582   -1.4851 H   0  0  0  0  0  0  0  0  0  0  0  0
    0.6926    4.6088   -0.8938 H   0  0  0  0  0  0  0  0  0  0  0  0
    0.4099    4.8554    0.8121 H   0  0  0  0  0  0  0  0  0  0  0  0
   -0.9597    2.4286    1.7681 H   0  0  0  0  0  0  0  0  0  0  0  0
   -3.3336    1.7831    1.6433 H   0  0  0  0  0  0  0  0  0  0  0  0
   -4.7416    2.5345   -0.2547 H   0  0  0  0  0  0  0  0  0  0  0  0
   -3.7381    3.8719   -2.0859 H   0  0  0  0  0  0  0  0  0  0  0  0
   -1.3645    4.5141   -1.9973 H   0  0  0  0  0  0  0  0  0  0  0  0
    3.1663    2.6055   -3.4292 H   0  0  0  0  0  0  0  0  0  0  0  0
    4.3928    4.3273   -4.6464 H   0  0  0  0  0  0  0  0  0  0  0  0
    5.0657    6.4260   -3.5036 H   0  0  0  0  0  0  0  0  0  0  0  0
    4.5963    6.7189   -1.0852 H   0  0  0  0  0  0  0  0  0  0  0  0
    3.4491    4.9613    0.1899 H   0  0  0  0  0  0  0  0  0  0  0  0
    2.8344   -1.6700   -2.2863 H   0  0  0  0  0  0  0  0  0  0  0  0
    4.3256   -5.5078   -3.7257 H   0  0  0  0  0  0  0  0  0  0  0  0
    5.9437   -6.8806   -2.9449 H   0  0  0  0  0  0  0  0  0  0  0  0
    6.8414   -2.3186    0.5087 H   0  0  0  0  0  0  0  0  0  0  0  0
    5.6575   -0.1211    0.5840 H   0  0  0  0  0  0  0  0  0  0  0  0
  1  2  2  0  0  0  0
  2  3  1  0  0  0  0
  2 20  1  0  0  0  0
  3  4  1  0  0  0  0
  3 31  1  0  0  0  0
  4  5  1  0  0  0  0
  4 14  1  0  0  0  0
  4 32  1  0  0  0  0
  5  6  2  0  0  0  0
  5  7  1  0  0  0  0
  7  8  1  0  0  0  0
  7 33  1  0  0  0  0
  7 34  1  0  0  0  0
  8  9  2  0  0  0  0
  8 13  1  0  0  0  0
  9 10  1  0  0  0  0
  9 35  1  0  0  0  0
 10 11  2  0  0  0  0
 10 36  1  0  0  0  0
 11 12  1  0  0  0  0
 11 37  1  0  0  0  0
 12 13  2  0  0  0  0
 12 38  1  0  0  0  0
 13 39  1  0  0  0  0
 14 15  2  0  0  0  0
 14 19  1  0  0  0  0
 15 16  1  0  0  0  0
 15 40  1  0  0  0  0
 16 17  2  0  0  0  0
 16 41  1  0  0  0  0
 17 18  1  0  0  0  0
 17 42  1  0  0  0  0
 18 19  2  0  0  0  0
 18 43  1  0  0  0  0
 19 44  1  0  0  0  0
 20 21  2  0  0  0  0
 20 30  1  0  0  0  0
 21 22  1  0  0  0  0
 21 45  1  0  0  0  0
 22 23  2  0  0  0  0
 22 28  1  0  0  0  0
 23 24  1  0  0  0  0
 24 25  2  0  0  0  0
 24 46  1  0  0  0  0
 25 26  1  0  0  0  0
 25 27  1  0  0  0  0
 26 47  1  0  0  0  0
 27 28  2  0  0  0  0
 28 29  1  0  0  0  0
 29 30  2  0  0  0  0
 29 48  1  0  0  0  0
 30 49  1  0  0  0  0
M  END
$$$$
