
 OpenBabel01122422403D

 39 42  0  0  0  0  0  0  0  0999 V2000
    1.6109   -0.9360    1.0975 N   0  0  0  0  0  0  0  0  0  0  0  0
    2.6570   -0.6248    0.6853 C   0  0  0  0  0  0  0  0  0  0  0  0
    3.9447   -0.2444    0.1882 C   0  0  0  0  0  0  0  0  0  0  0  0
    4.7520    0.7636    0.6642 C   0  0  0  0  0  0  0  0  0  0  0  0
    5.9270    0.7581   -0.0825 N   0  0  0  0  0  0  0  0  0  0  0  0
    7.1021    1.5614    0.1279 C   0  0  0  0  0  0  0  0  0  0  0  0
    7.1873    2.3883    1.2459 C   0  0  0  0  0  0  0  0  0  0  0  0
    8.3502    3.1398    1.5108 C   0  0  0  0  0  0  0  0  0  0  0  0
    9.4786    3.1224    0.6802 C   0  0  0  0  0  0  0  0  0  0  0  0
   10.6930    3.8545    0.9764 N   0  0  0  0  0  0  0  0  0  0  0  0
   10.8846    4.6494    2.1148 C   0  0  0  0  0  0  0  0  0  0  0  0
    9.9807    4.9029    2.9196 O   0  0  0  0  0  0  0  0  0  0  0  0
   12.2344    5.2351    2.4878 C   0  0  0  0  0  0  0  0  0  0  0  0
   13.2699    5.3606    1.6089 N   0  0  0  0  0  0  0  0  0  0  0  0
   14.4513    5.8735    2.1032 C   0  0  0  0  0  0  0  0  0  0  0  0
   15.6291    5.8875    1.3536 C   0  0  0  0  0  0  0  0  0  0  0  0
   16.8666    6.2348    1.9230 C   0  0  0  0  0  0  0  0  0  0  0  0
   17.9863    6.0908    1.2001 F   0  0  0  0  0  0  0  0  0  0  0  0
   16.9740    6.6686    3.2311 C   0  0  0  0  0  0  0  0  0  0  0  0
   15.8125    6.7754    3.9641 C   0  0  0  0  0  0  0  0  0  0  0  0
   15.8944    7.1907    5.2399 F   0  0  0  0  0  0  0  0  0  0  0  0
   14.5805    6.3511    3.4343 C   0  0  0  0  0  0  0  0  0  0  0  0
   13.4789    6.2912    4.2695 C   0  0  0  0  0  0  0  0  0  0  0  0
   12.3361    5.6557    3.8178 C   0  0  0  0  0  0  0  0  0  0  0  0
    9.3800    2.3098   -0.4615 C   0  0  0  0  0  0  0  0  0  0  0  0
    8.2096    1.5339   -0.7359 C   0  0  0  0  0  0  0  0  0  0  0  0
    5.8518   -0.1799   -1.0709 N   0  0  0  0  0  0  0  0  0  0  0  0
    4.6711   -0.7850   -0.8811 C   0  0  0  0  0  0  0  0  0  0  0  0
    4.5961    1.4655    1.4661 H   0  0  0  0  0  0  0  0  0  0  0  0
    6.3839    2.4675    1.9724 H   0  0  0  0  0  0  0  0  0  0  0  0
    8.3128    3.7302    2.4196 H   0  0  0  0  0  0  0  0  0  0  0  0
   11.4769    3.7606    0.3399 H   0  0  0  0  0  0  0  0  0  0  0  0
   15.6167    5.5536    0.3210 H   0  0  0  0  0  0  0  0  0  0  0  0
   17.9346    6.8919    3.6809 H   0  0  0  0  0  0  0  0  0  0  0  0
   13.5235    6.6576    5.2917 H   0  0  0  0  0  0  0  0  0  0  0  0
   11.5350    5.4638    4.5268 H   0  0  0  0  0  0  0  0  0  0  0  0
   10.2095    2.2483   -1.1640 H   0  0  0  0  0  0  0  0  0  0  0  0
    8.1892    0.9142   -1.6325 H   0  0  0  0  0  0  0  0  0  0  0  0
    4.3915   -1.6048   -1.5337 H   0  0  0  0  0  0  0  0  0  0  0  0
  1  2  3  0  0  0  0
  2  3  1  0  0  0  0
  3  4  2  0  0  0  0
  3 28  1  0  0  0  0
  4  5  1  0  0  0  0
  4 29  1  0  0  0  0
  5  6  1  0  0  0  0
  5 27  1  0  0  0  0
  6  7  2  0  0  0  0
  6 26  1  0  0  0  0
  7  8  1  0  0  0  0
  7 30  1  0  0  0  0
  8  9  2  0  0  0  0
  8 31  1  0  0  0  0
  9 10  1  0  0  0  0
  9 25  1  0  0  0  0
 10 11  1  0  0  0  0
 10 32  1  0  0  0  0
 11 12  2  0  0  0  0
 11 13  1  0  0  0  0
 13 14  2  0  0  0  0
 13 24  1  0  0  0  0
 14 15  1  0  0  0  0
 15 16  2  0  0  0  0
 15 22  1  0  0  0  0
 16 17  1  0  0  0  0
 16 33  1  0  0  0  0
 17 18  1  0  0  0  0
 17 19  2  0  0  0  0
 19 20  1  0  0  0  0
 19 34  1  0  0  0  0
 20 21  1  0  0  0  0
 20 22  2  0  0  0  0
 22 23  1  0  0  0  0
 23 24  2  0  0  0  0
 23 35  1  0  0  0  0
 24 36  1  0  0  0  0
 25 26  2  0  0  0  0
 25 37  1  0  0  0  0
 26 38  1  0  0  0  0
 27 28  2  0  0  0  0
 28 39  1  0  0  0  0
M  END
$$$$
