
 OpenBabel01122422403D

 49 52  0  0  0  0  0  0  0  0999 V2000
   -0.4334   -2.3697   -2.4913 C   0  0  0  0  0  0  0  0  0  0  0  0
    0.7131   -3.0526   -3.1718 C   0  0  0  0  0  0  0  0  0  0  0  0
    1.7566   -3.5953   -2.5178 C   0  0  0  0  0  0  0  0  0  0  0  0
    2.7898   -4.2108   -3.2283 N   0  0  0  0  0  0  0  0  0  0  0  0
    3.9633   -4.8273   -2.7980 C   0  0  0  0  0  0  0  0  0  0  0  0
    4.4115   -4.9634   -1.4261 C   0  0  0  0  0  0  0  0  0  0  0  0
    3.7878   -4.5469   -0.4581 O   0  0  0  0  0  0  0  0  0  0  0  0
    5.6250   -5.6142   -1.2685 N   0  0  0  0  0  0  0  0  0  0  0  0
    6.2165   -5.8277    0.0372 C   0  0  0  0  0  0  0  0  0  0  0  0
    7.5377   -6.5670   -0.0337 C   0  0  0  0  0  0  0  0  0  0  0  0
    8.7589   -5.8874   -0.1295 C   0  0  0  0  0  0  0  0  0  0  0  0
    9.9560   -6.5993   -0.2553 C   0  0  0  0  0  0  0  0  0  0  0  0
    9.9679   -8.0022   -0.2864 C   0  0  0  0  0  0  0  0  0  0  0  0
   11.2994   -8.6457   -0.4553 C   0  0  0  0  0  0  0  0  0  0  0  0
   12.2636   -8.0237   -0.0166 O   0  0  0  0  0  0  0  0  0  0  0  0
   11.3657   -9.8307   -1.1847 N   0  0  0  0  0  0  0  0  0  0  0  0
   12.5927  -10.4694   -1.5104 C   0  0  0  0  0  0  0  0  0  0  0  0
   13.7834  -10.2128   -0.8155 C   0  0  0  0  0  0  0  0  0  0  0  0
   14.9996  -10.7420   -1.2455 C   0  0  0  0  0  0  0  0  0  0  0  0
   15.0239  -11.5602   -2.3620 C   0  0  0  0  0  0  0  0  0  0  0  0
   16.1941  -12.0352   -2.8044 F   0  0  0  0  0  0  0  0  0  0  0  0
   13.8476  -11.8866   -3.0292 C   0  0  0  0  0  0  0  0  0  0  0  0
   12.6260  -11.3521   -2.5959 C   0  0  0  0  0  0  0  0  0  0  0  0
    8.7655   -8.6935   -0.1327 C   0  0  0  0  0  0  0  0  0  0  0  0
    7.5622   -7.9747   -0.0152 C   0  0  0  0  0  0  0  0  0  0  0  0
    4.5690   -5.2410   -3.9748 C   0  0  0  0  0  0  0  0  0  0  0  0
    3.8429   -4.9174   -5.0841 N   0  0  0  0  0  0  0  0  0  0  0  0
    2.7875   -4.2984   -4.6233 C   0  0  0  0  0  0  0  0  0  0  0  0
    1.6779   -3.7202   -5.3146 C   0  0  0  0  0  0  0  0  0  0  0  0
    0.6907   -3.1278   -4.6333 C   0  0  0  0  0  0  0  0  0  0  0  0
   -0.3190   -2.3758   -1.4018 H   0  0  0  0  0  0  0  0  0  0  0  0
   -1.3778   -2.8710   -2.7291 H   0  0  0  0  0  0  0  0  0  0  0  0
   -0.5048   -1.3249   -2.8120 H   0  0  0  0  0  0  0  0  0  0  0  0
    1.8379   -3.5750   -1.4352 H   0  0  0  0  0  0  0  0  0  0  0  0
    6.0738   -6.0308   -2.0663 H   0  0  0  0  0  0  0  0  0  0  0  0
    5.5015   -6.4049    0.6345 H   0  0  0  0  0  0  0  0  0  0  0  0
    6.3356   -4.8553    0.5286 H   0  0  0  0  0  0  0  0  0  0  0  0
    8.8130   -4.8009   -0.1069 H   0  0  0  0  0  0  0  0  0  0  0  0
   10.8955   -6.0522   -0.3428 H   0  0  0  0  0  0  0  0  0  0  0  0
   10.5509  -10.1100   -1.7092 H   0  0  0  0  0  0  0  0  0  0  0  0
   13.8012   -9.5846    0.0697 H   0  0  0  0  0  0  0  0  0  0  0  0
   15.9182  -10.4981   -0.7216 H   0  0  0  0  0  0  0  0  0  0  0  0
   13.8961  -12.5354   -3.8984 H   0  0  0  0  0  0  0  0  0  0  0  0
   11.7246  -11.6005   -3.1494 H   0  0  0  0  0  0  0  0  0  0  0  0
    8.7387   -9.7781   -0.0794 H   0  0  0  0  0  0  0  0  0  0  0  0
    6.6288   -8.5224    0.1030 H   0  0  0  0  0  0  0  0  0  0  0  0
    5.5108   -5.7612   -4.0951 H   0  0  0  0  0  0  0  0  0  0  0  0
    1.6677   -3.7782   -6.4045 H   0  0  0  0  0  0  0  0  0  0  0  0
   -0.1508   -2.6870   -5.1578 H   0  0  0  0  0  0  0  0  0  0  0  0
  1  2  1  0  0  0  0
  1 31  1  0  0  0  0
  1 32  1  0  0  0  0
  1 33  1  0  0  0  0
  2  3  2  0  0  0  0
  2 30  1  0  0  0  0
  3  4  1  0  0  0  0
  3 34  1  0  0  0  0
  4  5  1  0  0  0  0
  4 28  1  0  0  0  0
  5  6  1  0  0  0  0
  5 26  2  0  0  0  0
  6  7  2  0  0  0  0
  6  8  1  0  0  0  0
  8  9  1  0  0  0  0
  8 35  1  0  0  0  0
  9 10  1  0  0  0  0
  9 36  1  0  0  0  0
  9 37  1  0  0  0  0
 10 11  2  0  0  0  0
 10 25  1  0  0  0  0
 11 12  1  0  0  0  0
 11 38  1  0  0  0  0
 12 13  2  0  0  0  0
 12 39  1  0  0  0  0
 13 14  1  0  0  0  0
 13 24  1  0  0  0  0
 14 15  2  0  0  0  0
 14 16  1  0  0  0  0
 16 17  1  0  0  0  0
 16 40  1  0  0  0  0
 17 18  2  0  0  0  0
 17 23  1  0  0  0  0
 18 19  1  0  0  0  0
 18 41  1  0  0  0  0
 19 20  2  0  0  0  0
 19 42  1  0  0  0  0
 20 21  1  0  0  0  0
 20 22  1  0  0  0  0
 22 23  2  0  0  0  0
 22 43  1  0  0  0  0
 23 44  1  0  0  0  0
 24 25  2  0  0  0  0
 24 45  1  0  0  0  0
 25 46  1  0  0  0  0
 26 27  1  0  0  0  0
 26 47  1  0  0  0  0
 27 28  2  0  0  0  0
 28 29  1  0  0  0  0
 29 30  2  0  0  0  0
 29 48  1  0  0  0  0
 30 49  1  0  0  0  0
M  END
$$$$
