
 OpenBabel01122422353D

 44 47  0  0  0  0  0  0  0  0999 V2000
    1.1783    0.4113    0.0586 C   0  0  0  0  0  0  0  0  0  0  0  0
    2.6325    0.2269    0.1905 N   0  0  0  0  0  0  0  0  0  0  0  0
    3.2509   -0.9911    0.5746 C   0  0  0  0  0  0  0  0  0  0  0  0
    4.4602   -1.1271    0.7419 O   0  0  0  0  0  0  0  0  0  0  0  0
    2.4539   -2.2477    0.7512 C   0  0  0  0  0  0  0  0  0  0  0  0
    1.3195   -2.5117   -0.0025 C   0  0  0  0  0  0  0  0  0  0  0  0
    0.6261   -3.7000    0.1406 C   0  0  0  0  0  0  0  0  0  0  0  0
    1.2697   -4.7857    0.7418 C   0  0  0  0  0  0  0  0  0  0  0  0
    1.0159   -6.1117    0.1728 N   0  0  0  0  0  0  0  0  0  0  0  0
    2.0941   -6.9673    0.2574 C   0  0  0  0  0  0  0  0  0  0  0  0
    3.0307   -7.0288   -0.6405 N   0  0  0  0  0  0  0  0  0  0  0  0
    2.8792   -6.1331   -1.7253 C   0  0  0  0  0  0  0  0  0  0  0  0
    3.9884   -5.5504   -2.3304 C   0  0  0  0  0  0  0  0  0  0  0  0
    3.8170   -4.5396   -3.2867 C   0  0  0  0  0  0  0  0  0  0  0  0
    2.5351   -4.1426   -3.6826 C   0  0  0  0  0  0  0  0  0  0  0  0
    1.4126   -4.7322   -3.1025 C   0  0  0  0  0  0  0  0  0  0  0  0
    1.6075   -5.6959   -2.1086 C   0  0  0  0  0  0  0  0  0  0  0  0
    0.5309   -6.0436   -1.1434 C   0  0  0  0  0  0  0  0  0  0  0  0
   -0.6391   -6.1239   -1.4787 O   0  0  0  0  0  0  0  0  0  0  0  0
    2.3711   -4.5308    1.5746 C   0  0  0  0  0  0  0  0  0  0  0  0
    2.9512   -3.2541    1.5919 C   0  0  0  0  0  0  0  0  0  0  0  0
    3.4265    1.4028   -0.0786 C   0  0  0  0  0  0  0  0  0  0  0  0
    4.7036    1.6119    0.4473 C   0  0  0  0  0  0  0  0  0  0  0  0
    5.4541    2.7303    0.2461 N   0  0  0  0  0  0  0  0  0  0  0  0
    4.9180    3.6946   -0.5298 C   0  0  0  0  0  0  0  0  0  0  0  0
    3.6673    3.5958   -1.1124 C   0  0  0  0  0  0  0  0  0  0  0  0
    3.1573    4.6551   -1.9244 C   0  0  0  0  0  0  0  0  0  0  0  0
    2.7271    5.5049   -2.5809 N   0  0  0  0  0  0  0  0  0  0  0  0
    2.9213    2.4397   -0.8819 C   0  0  0  0  0  0  0  0  0  0  0  0
    0.6078   -0.3136    0.6386 H   0  0  0  0  0  0  0  0  0  0  0  0
    0.9093    0.3394   -1.0028 H   0  0  0  0  0  0  0  0  0  0  0  0
    0.8784    1.3866    0.4518 H   0  0  0  0  0  0  0  0  0  0  0  0
    0.9806   -1.8511   -0.7917 H   0  0  0  0  0  0  0  0  0  0  0  0
   -0.2865   -3.8266   -0.4395 H   0  0  0  0  0  0  0  0  0  0  0  0
    2.1270   -7.5635    1.1825 H   0  0  0  0  0  0  0  0  0  0  0  0
    4.9870   -5.8303   -2.0073 H   0  0  0  0  0  0  0  0  0  0  0  0
    4.6909   -4.0394   -3.6997 H   0  0  0  0  0  0  0  0  0  0  0  0
    2.4186   -3.3396   -4.4083 H   0  0  0  0  0  0  0  0  0  0  0  0
    0.4153   -4.3758   -3.3447 H   0  0  0  0  0  0  0  0  0  0  0  0
    2.8818   -5.3284    2.1106 H   0  0  0  0  0  0  0  0  0  0  0  0
    3.8611   -3.0898    2.1682 H   0  0  0  0  0  0  0  0  0  0  0  0
    5.1851    0.9025    1.1138 H   0  0  0  0  0  0  0  0  0  0  0  0
    5.5459    4.5702   -0.6673 H   0  0  0  0  0  0  0  0  0  0  0  0
    1.9484    2.3589   -1.3614 H   0  0  0  0  0  0  0  0  0  0  0  0
  1  2  1  0  0  0  0
  1 30  1  0  0  0  0
  1 31  1  0  0  0  0
  1 32  1  0  0  0  0
  2  3  1  0  0  0  0
  2 22  1  0  0  0  0
  3  4  2  0  0  0  0
  3  5  1  0  0  0  0
  5  6  2  0  0  0  0
  5 21  1  0  0  0  0
  6  7  1  0  0  0  0
  6 33  1  0  0  0  0
  7  8  2  0  0  0  0
  7 34  1  0  0  0  0
  8  9  1  0  0  0  0
  8 20  1  0  0  0  0
  9 10  1  0  0  0  0
  9 18  1  0  0  0  0
 10 11  2  0  0  0  0
 10 35  1  0  0  0  0
 11 12  1  0  0  0  0
 12 13  2  0  0  0  0
 12 17  1  0  0  0  0
 13 14  1  0  0  0  0
 13 36  1  0  0  0  0
 14 15  2  0  0  0  0
 14 37  1  0  0  0  0
 15 16  1  0  0  0  0
 15 38  1  0  0  0  0
 16 17  2  0  0  0  0
 16 39  1  0  0  0  0
 17 18  1  0  0  0  0
 18 19  2  0  0  0  0
 20 21  2  0  0  0  0
 20 40  1  0  0  0  0
 21 41  1  0  0  0  0
 22 23  2  0  0  0  0
 22 29  1  0  0  0  0
 23 24  1  0  0  0  0
 23 42  1  0  0  0  0
 24 25  2  0  0  0  0
 25 26  1  0  0  0  0
 25 43  1  0  0  0  0
 26 27  1  0  0  0  0
 26 29  2  0  0  0  0
 27 28  3  0  0  0  0
 29 44  1  0  0  0  0
M  END
$$$$
