
 OpenBabel01122422403D

 48 50  0  0  1  0  0  0  0  0999 V2000
    3.9472   -1.7355    3.8541 C   0  0  0  0  0  0  0  0  0  0  0  0
    3.7194   -1.5728    2.4545 O   0  0  0  0  0  0  0  0  0  0  0  0
    3.1203   -0.3937    2.1068 C   0  0  0  0  0  0  0  0  0  0  0  0
    2.7565    0.4546    2.9097 O   0  0  0  0  0  0  0  0  0  0  0  0
    2.9599   -0.2613    0.5661 C   0  0  3  0  0  0  0  0  0  0  0  0
    3.4982   -1.3946   -0.1827 N   0  0  0  0  0  0  0  0  0  0  0  0
    4.8378   -1.4728   -0.4846 C   0  0  0  0  0  0  0  0  0  0  0  0
    5.6315   -0.5599   -0.2893 O   0  0  0  0  0  0  0  0  0  0  0  0
    5.2550   -2.7922   -1.0585 C   0  0  0  0  0  0  0  0  0  0  0  0
    6.5307   -2.9580   -1.4356 C   0  0  0  0  0  0  0  0  0  0  0  0
    6.9556   -4.2671   -1.9814 C   0  0  0  0  0  0  0  0  0  0  0  0
    8.1249   -4.4440   -2.3062 O   0  0  0  0  0  0  0  0  0  0  0  0
    5.9044   -5.3229   -2.0952 C   0  0  0  0  0  0  0  0  0  0  0  0
    6.1280   -6.6034   -2.5604 O   0  0  0  0  0  0  0  0  0  0  0  0
    7.1374   -6.7628   -3.5592 C   0  0  0  0  0  0  0  0  0  0  0  0
    6.7745   -7.9212   -4.4674 C   0  0  0  0  0  0  0  0  0  0  0  0
    7.2167   -7.9194   -5.7992 C   0  0  0  0  0  0  0  0  0  0  0  0
    6.9393   -8.9958   -6.6444 C   0  0  0  0  0  0  0  0  0  0  0  0
    6.2270  -10.0934   -6.1664 C   0  0  0  0  0  0  0  0  0  0  0  0
    5.7817  -10.1106   -4.8463 C   0  0  0  0  0  0  0  0  0  0  0  0
    6.0551   -9.0325   -4.0012 C   0  0  0  0  0  0  0  0  0  0  0  0
    4.6767   -4.9995   -1.6713 C   0  0  0  0  0  0  0  0  0  0  0  0
    4.2957   -3.7847   -1.1635 O   0  0  0  0  0  0  0  0  0  0  0  0
    1.5092    0.0388    0.2069 C   0  0  0  0  0  0  0  0  0  0  0  0
    1.0773    1.3788    0.1585 C   0  0  0  0  0  0  0  0  0  0  0  0
   -0.2660    1.6899   -0.0659 C   0  0  0  0  0  0  0  0  0  0  0  0
   -1.1850    0.6671   -0.2628 C   0  0  0  0  0  0  0  0  0  0  0  0
   -2.4740    0.9694   -0.4604 F   0  0  0  0  0  0  0  0  0  0  0  0
   -0.7844   -0.6615   -0.2453 C   0  0  0  0  0  0  0  0  0  0  0  0
    0.5526   -0.9646    0.0024 C   0  0  0  0  0  0  0  0  0  0  0  0
    0.9167   -2.2556    0.0462 F   0  0  0  0  0  0  0  0  0  0  0  0
    4.3064   -2.7553    4.0193 H   0  0  0  0  0  0  0  0  0  0  0  0
    3.0225   -1.6009    4.4242 H   0  0  0  0  0  0  0  0  0  0  0  0
    4.7187   -1.0377    4.1948 H   0  0  0  0  0  0  0  0  0  0  0  0
    3.5683    0.6070    0.2859 H   0  0  0  0  0  0  0  0  0  0  0  0
    2.9485   -2.2467   -0.2112 H   0  0  0  0  0  0  0  0  0  0  0  0
    7.2859   -2.1859   -1.3562 H   0  0  0  0  0  0  0  0  0  0  0  0
    8.0942   -6.9850   -3.0726 H   0  0  0  0  0  0  0  0  0  0  0  0
    7.2272   -5.8595   -4.1742 H   0  0  0  0  0  0  0  0  0  0  0  0
    7.7840   -7.0761   -6.1880 H   0  0  0  0  0  0  0  0  0  0  0  0
    7.2856   -8.9798   -7.6746 H   0  0  0  0  0  0  0  0  0  0  0  0
    6.0224  -10.9363   -6.8207 H   0  0  0  0  0  0  0  0  0  0  0  0
    5.2260  -10.9663   -4.4716 H   0  0  0  0  0  0  0  0  0  0  0  0
    5.7006   -9.0673   -2.9731 H   0  0  0  0  0  0  0  0  0  0  0  0
    3.8451   -5.6904   -1.6932 H   0  0  0  0  0  0  0  0  0  0  0  0
    1.7837    2.1905    0.3226 H   0  0  0  0  0  0  0  0  0  0  0  0
   -0.6005    2.7233   -0.0731 H   0  0  0  0  0  0  0  0  0  0  0  0
   -1.5128   -1.4480   -0.4078 H   0  0  0  0  0  0  0  0  0  0  0  0
  1  2  1  0  0  0  0
  1 32  1  0  0  0  0
  1 33  1  0  0  0  0
  1 34  1  0  0  0  0
  2  3  1  0  0  0  0
  3  4  2  0  0  0  0
  3  5  1  0  0  0  0
  5  6  1  0  0  0  0
  5 24  1  0  0  0  0
  5 35  1  0  0  0  0
  6  7  1  0  0  0  0
  6 36  1  0  0  0  0
  7  8  2  0  0  0  0
  7  9  1  0  0  0  0
  9 10  2  0  0  0  0
  9 23  1  0  0  0  0
 10 11  1  0  0  0  0
 10 37  1  0  0  0  0
 11 12  2  0  0  0  0
 11 13  1  0  0  0  0
 13 14  1  0  0  0  0
 13 22  2  0  0  0  0
 14 15  1  0  0  0  0
 15 16  1  0  0  0  0
 15 38  1  0  0  0  0
 15 39  1  0  0  0  0
 16 17  2  0  0  0  0
 16 21  1  0  0  0  0
 17 18  1  0  0  0  0
 17 40  1  0  0  0  0
 18 19  2  0  0  0  0
 18 41  1  0  0  0  0
 19 20  1  0  0  0  0
 19 42  1  0  0  0  0
 20 21  2  0  0  0  0
 20 43  1  0  0  0  0
 21 44  1  0  0  0  0
 22 23  1  0  0  0  0
 22 45  1  0  0  0  0
 24 25  2  0  0  0  0
 24 30  1  0  0  0  0
 25 26  1  0  0  0  0
 25 46  1  0  0  0  0
 26 27  2  0  0  0  0
 26 47  1  0  0  0  0
 27 28  1  0  0  0  0
 27 29  1  0  0  0  0
 29 30  2  0  0  0  0
 29 48  1  0  0  0  0
 30 31  1  0  0  0  0
M  END
$$$$
