
 OpenBabel01122422403D

 49 52  0  0  0  0  0  0  0  0999 V2000
    0.9672    0.3147    0.1170 O   0  0  0  0  0  0  0  0  0  0  0  0
    2.1889    0.1853    0.1765 C   0  0  0  0  0  0  0  0  0  0  0  0
    2.8787   -0.5901    1.1018 N   0  0  0  0  0  0  0  0  0  0  0  0
    2.2350   -1.4378    2.0417 C   0  0  0  0  0  0  0  0  0  0  0  0
    0.9243   -1.8820    1.8425 C   0  0  0  0  0  0  0  0  0  0  0  0
    0.2415   -2.6704    2.7694 C   0  0  0  0  0  0  0  0  0  0  0  0
   -1.0790   -3.1284    2.5373 N   0  0  0  0  0  0  0  0  0  0  0  0
   -1.7199   -3.1301    1.3067 C   0  0  0  0  0  0  0  0  0  0  0  0
   -1.2120   -2.8138    0.2350 O   0  0  0  0  0  0  0  0  0  0  0  0
   -3.0812   -3.5939    1.2949 C   0  0  0  0  0  0  0  0  0  0  0  0
   -3.9528   -4.0979    2.2323 C   0  0  0  0  0  0  0  0  0  0  0  0
   -5.1596   -4.4269    1.6630 N   0  0  0  0  0  0  0  0  0  0  0  0
   -5.0412   -4.1208    0.3931 C   0  0  0  0  0  0  0  0  0  0  0  0
   -3.8132   -3.5993    0.1254 N   0  0  0  0  0  0  0  0  0  0  0  0
    0.8929   -2.9987    3.9587 C   0  0  0  0  0  0  0  0  0  0  0  0
    2.2256   -2.6086    4.1576 C   0  0  0  0  0  0  0  0  0  0  0  0
    2.9030   -1.8482    3.1937 C   0  0  0  0  0  0  0  0  0  0  0  0
    2.9713    1.0226   -0.7625 C   0  0  0  0  0  0  0  0  0  0  0  0
    2.3561    2.2138   -1.1827 C   0  0  0  0  0  0  0  0  0  0  0  0
    2.9524    3.0251   -2.1381 C   0  0  0  0  0  0  0  0  0  0  0  0
    4.1857    2.6599   -2.6711 C   0  0  0  0  0  0  0  0  0  0  0  0
    4.8319    1.4838   -2.2502 C   0  0  0  0  0  0  0  0  0  0  0  0
    6.1668    1.1068   -2.8565 C   0  0  0  0  0  0  0  0  0  0  0  0
    6.0382    0.2995   -4.1253 C   0  0  0  0  0  0  0  0  0  0  0  0
    5.9828    0.9339   -5.3663 C   0  0  0  0  0  0  0  0  0  0  0  0
    5.7801    0.1640   -6.5077 C   0  0  0  0  0  0  0  0  0  0  0  0
    5.6415   -1.2123   -6.3824 C   0  0  0  0  0  0  0  0  0  0  0  0
    5.7308   -1.7668   -5.1165 C   0  0  0  0  0  0  0  0  0  0  0  0
    5.9301   -1.0463   -3.9911 N   0  0  0  0  0  0  0  0  0  0  0  0
    4.2045    0.6495   -1.3032 C   0  0  0  0  0  0  0  0  0  0  0  0
    3.8660   -0.4194    1.2258 H   0  0  0  0  0  0  0  0  0  0  0  0
    0.4190   -1.5976    0.9295 H   0  0  0  0  0  0  0  0  0  0  0  0
   -1.5552   -3.5574    3.3169 H   0  0  0  0  0  0  0  0  0  0  0  0
   -3.7870   -4.2591    3.2935 H   0  0  0  0  0  0  0  0  0  0  0  0
   -5.7942   -4.2494   -0.3716 H   0  0  0  0  0  0  0  0  0  0  0  0
   -3.4617   -3.2765   -0.7691 H   0  0  0  0  0  0  0  0  0  0  0  0
    0.3943   -3.5865    4.7237 H   0  0  0  0  0  0  0  0  0  0  0  0
    2.7382   -2.8974    5.0722 H   0  0  0  0  0  0  0  0  0  0  0  0
    3.9312   -1.5533    3.3786 H   0  0  0  0  0  0  0  0  0  0  0  0
    1.3842    2.4958   -0.7810 H   0  0  0  0  0  0  0  0  0  0  0  0
    2.4487    3.9232   -2.4726 H   0  0  0  0  0  0  0  0  0  0  0  0
    4.6334    3.2944   -3.4327 H   0  0  0  0  0  0  0  0  0  0  0  0
    6.7555    0.5427   -2.1231 H   0  0  0  0  0  0  0  0  0  0  0  0
    6.7489    2.0184   -3.0506 H   0  0  0  0  0  0  0  0  0  0  0  0
    6.0787    2.0118   -5.4480 H   0  0  0  0  0  0  0  0  0  0  0  0
    5.7163    0.6357   -7.4838 H   0  0  0  0  0  0  0  0  0  0  0  0
    5.4637   -1.8387   -7.2488 H   0  0  0  0  0  0  0  0  0  0  0  0
    5.6333   -2.8377   -4.9677 H   0  0  0  0  0  0  0  0  0  0  0  0
    4.6607   -0.3014   -1.0423 H   0  0  0  0  0  0  0  0  0  0  0  0
  1  2  2  0  0  0  0
  2  3  1  0  0  0  0
  2 18  1  0  0  0  0
  3  4  1  0  0  0  0
  3 31  1  0  0  0  0
  4  5  2  0  0  0  0
  4 17  1  0  0  0  0
  5  6  1  0  0  0  0
  5 32  1  0  0  0  0
  6  7  1  0  0  0  0
  6 15  2  0  0  0  0
  7  8  1  0  0  0  0
  7 33  1  0  0  0  0
  8  9  2  0  0  0  0
  8 10  1  0  0  0  0
 10 11  2  0  0  0  0
 10 14  1  0  0  0  0
 11 12  1  0  0  0  0
 11 34  1  0  0  0  0
 12 13  2  0  0  0  0
 13 14  1  0  0  0  0
 13 35  1  0  0  0  0
 14 36  1  0  0  0  0
 15 16  1  0  0  0  0
 15 37  1  0  0  0  0
 16 17  2  0  0  0  0
 16 38  1  0  0  0  0
 17 39  1  0  0  0  0
 18 19  2  0  0  0  0
 18 30  1  0  0  0  0
 19 20  1  0  0  0  0
 19 40  1  0  0  0  0
 20 21  2  0  0  0  0
 20 41  1  0  0  0  0
 21 22  1  0  0  0  0
 21 42  1  0  0  0  0
 22 23  1  0  0  0  0
 22 30  2  0  0  0  0
 23 24  1  0  0  0  0
 23 43  1  0  0  0  0
 23 44  1  0  0  0  0
 24 25  2  0  0  0  0
 24 29  1  0  0  0  0
 25 26  1  0  0  0  0
 25 45  1  0  0  0  0
 26 27  2  0  0  0  0
 26 46  1  0  0  0  0
 27 28  1  0  0  0  0
 27 47  1  0  0  0  0
 28 29  2  0  0  0  0
 28 48  1  0  0  0  0
 30 49  1  0  0  0  0
M  END
$$$$
