
 OpenBabel01122422403D

 42 45  0  0  0  0  0  0  0  0999 V2000
    2.8917   -1.1274   -0.4659 O   0  0  0  0  0  0  0  0  0  0  0  0
    2.4382   -0.0285   -0.1734 C   0  0  0  0  0  0  0  0  0  0  0  0
    3.0697    1.1567   -0.4172 O   0  0  0  0  0  0  0  0  0  0  0  0
    4.4512    1.0546   -0.7604 C   0  0  0  0  0  0  0  0  0  0  0  0
    4.6986    1.4167   -2.2015 C   0  0  0  0  0  0  0  0  0  0  0  0
    4.7653    0.4279   -3.1940 C   0  0  0  0  0  0  0  0  0  0  0  0
    5.0587    0.7672   -4.5212 C   0  0  0  0  0  0  0  0  0  0  0  0
    5.3211    2.1020   -4.8627 C   0  0  0  0  0  0  0  0  0  0  0  0
    5.6862    2.4346   -6.1888 N   0  0  0  0  0  0  0  0  0  0  0  0
    6.3872    3.5403   -6.6237 C   0  0  0  0  0  0  0  0  0  0  0  0
    6.4516    3.4705   -7.9932 C   0  0  0  0  0  0  0  0  0  0  0  0
    5.7851    2.2788   -8.3116 C   0  0  0  0  0  0  0  0  0  0  0  0
    5.3816    1.6123   -7.2290 N   0  0  0  0  0  0  0  0  0  0  0  0
    5.2180    3.0871   -3.8806 C   0  0  0  0  0  0  0  0  0  0  0  0
    5.3801    4.3874   -4.1674 F   0  0  0  0  0  0  0  0  0  0  0  0
    4.8920    2.7545   -2.5674 C   0  0  0  0  0  0  0  0  0  0  0  0
    1.1764    0.1346    0.5727 C   0  0  0  0  0  0  0  0  0  0  0  0
    0.7131    1.3234    1.0025 N   0  0  0  0  0  0  0  0  0  0  0  0
   -0.3952    1.0404    1.7346 N   0  0  0  0  0  0  0  0  0  0  0  0
   -1.0968    2.0691    2.4252 C   0  0  0  0  0  0  0  0  0  0  0  0
   -2.1806    1.7699    3.2592 C   0  0  0  0  0  0  0  0  0  0  0  0
   -2.8289    2.8023    3.9355 C   0  0  0  0  0  0  0  0  0  0  0  0
   -3.8580    2.5084    4.7420 F   0  0  0  0  0  0  0  0  0  0  0  0
   -2.4282    4.1254    3.7956 C   0  0  0  0  0  0  0  0  0  0  0  0
   -1.3529    4.4294    2.9648 C   0  0  0  0  0  0  0  0  0  0  0  0
   -0.6860    3.4064    2.2831 C   0  0  0  0  0  0  0  0  0  0  0  0
   -0.6754   -0.3060    1.7151 C   0  0  0  0  0  0  0  0  0  0  0  0
    0.3185   -0.9135    0.9879 C   0  0  0  0  0  0  0  0  0  0  0  0
    4.8863    0.0749   -0.5263 H   0  0  0  0  0  0  0  0  0  0  0  0
    4.9867    1.7658   -0.1192 H   0  0  0  0  0  0  0  0  0  0  0  0
    4.6093   -0.6194   -2.9361 H   0  0  0  0  0  0  0  0  0  0  0  0
    5.1275   -0.0224   -5.2677 H   0  0  0  0  0  0  0  0  0  0  0  0
    6.7983    4.2603   -5.9309 H   0  0  0  0  0  0  0  0  0  0  0  0
    6.9216    4.1782   -8.6618 H   0  0  0  0  0  0  0  0  0  0  0  0
    5.5931    1.8582   -9.2903 H   0  0  0  0  0  0  0  0  0  0  0  0
    4.8044    3.5508   -1.8330 H   0  0  0  0  0  0  0  0  0  0  0  0
   -2.5424    0.7615    3.4241 H   0  0  0  0  0  0  0  0  0  0  0  0
   -2.9544    4.9072    4.3346 H   0  0  0  0  0  0  0  0  0  0  0  0
   -1.0279    5.4608    2.8490 H   0  0  0  0  0  0  0  0  0  0  0  0
    0.1542    3.6680    1.6397 H   0  0  0  0  0  0  0  0  0  0  0  0
   -1.5298   -0.7283    2.2213 H   0  0  0  0  0  0  0  0  0  0  0  0
    0.4346   -1.9716    0.7960 H   0  0  0  0  0  0  0  0  0  0  0  0
  1  2  2  0  0  0  0
  2  3  1  0  0  0  0
  2 17  1  0  0  0  0
  3  4  1  0  0  0  0
  4  5  1  0  0  0  0
  4 29  1  0  0  0  0
  4 30  1  0  0  0  0
  5  6  2  0  0  0  0
  5 16  1  0  0  0  0
  6  7  1  0  0  0  0
  6 31  1  0  0  0  0
  7  8  2  0  0  0  0
  7 32  1  0  0  0  0
  8  9  1  0  0  0  0
  8 14  1  0  0  0  0
  9 10  1  0  0  0  0
  9 13  1  0  0  0  0
 10 11  2  0  0  0  0
 10 33  1  0  0  0  0
 11 12  1  0  0  0  0
 11 34  1  0  0  0  0
 12 13  2  0  0  0  0
 12 35  1  0  0  0  0
 14 15  1  0  0  0  0
 14 16  2  0  0  0  0
 16 36  1  0  0  0  0
 17 18  2  0  0  0  0
 17 28  1  0  0  0  0
 18 19  1  0  0  0  0
 19 20  1  0  0  0  0
 19 27  1  0  0  0  0
 20 21  2  0  0  0  0
 20 26  1  0  0  0  0
 21 22  1  0  0  0  0
 21 37  1  0  0  0  0
 22 23  1  0  0  0  0
 22 24  2  0  0  0  0
 24 25  1  0  0  0  0
 24 38  1  0  0  0  0
 25 26  2  0  0  0  0
 25 39  1  0  0  0  0
 26 40  1  0  0  0  0
 27 28  2  0  0  0  0
 27 41  1  0  0  0  0
 28 42  1  0  0  0  0
M  END
$$$$
