
 OpenBabel01122422403D

 49 52  0  0  0  0  0  0  0  0999 V2000
    1.2345   -1.6075   -1.4521 C   0  0  0  0  0  0  0  0  0  0  0  0
    2.6662   -1.4972   -1.3295 N   0  0  0  0  0  0  0  0  0  0  0  0
    3.3566   -0.4552   -1.9078 C   0  0  0  0  0  0  0  0  0  0  0  0
    2.8051    0.4209   -2.5641 O   0  0  0  0  0  0  0  0  0  0  0  0
    4.8330   -0.4110   -1.7002 C   0  0  0  0  0  0  0  0  0  0  0  0
    5.5473    0.6416   -2.2789 C   0  0  0  0  0  0  0  0  0  0  0  0
    6.9291    0.7427   -2.0836 C   0  0  0  0  0  0  0  0  0  0  0  0
    7.6370   -0.1973   -1.3080 C   0  0  0  0  0  0  0  0  0  0  0  0
    9.1071    0.0362   -1.1247 C   0  0  0  0  0  0  0  0  0  0  0  0
    9.5577    1.0620   -1.6371 O   0  0  0  0  0  0  0  0  0  0  0  0
    9.8689   -0.8992   -0.4328 N   0  0  0  0  0  0  0  0  0  0  0  0
   11.2589   -0.7732   -0.1504 C   0  0  0  0  0  0  0  0  0  0  0  0
   11.9416    0.4408   -0.2666 C   0  0  0  0  0  0  0  0  0  0  0  0
   13.3146    0.5179   -0.0368 C   0  0  0  0  0  0  0  0  0  0  0  0
   14.0243   -0.6161    0.3503 C   0  0  0  0  0  0  0  0  0  0  0  0
   13.3668   -1.8415    0.5402 C   0  0  0  0  0  0  0  0  0  0  0  0
   14.1941   -3.0532    0.9613 C   0  0  0  0  0  0  0  0  0  0  0  0
   13.4850   -4.0289    1.8497 C   0  0  0  0  0  0  0  0  0  0  0  0
   13.2557   -5.3143    1.6405 N   0  0  0  0  0  0  0  0  0  0  0  0
   12.4398   -5.7203    2.6776 C   0  0  0  0  0  0  0  0  0  0  0  0
   11.8331   -6.9600    2.9381 C   0  0  0  0  0  0  0  0  0  0  0  0
   10.9305   -7.0527    4.0097 C   0  0  0  0  0  0  0  0  0  0  0  0
   10.6646   -5.9497    4.8238 C   0  0  0  0  0  0  0  0  0  0  0  0
   11.3192   -4.7311    4.6256 C   0  0  0  0  0  0  0  0  0  0  0  0
   12.1947   -4.6611    3.5429 C   0  0  0  0  0  0  0  0  0  0  0  0
   12.9679   -3.6402    3.0606 N   0  0  0  0  0  0  0  0  0  0  0  0
   11.9802   -1.9089    0.2648 C   0  0  0  0  0  0  0  0  0  0  0  0
    6.9234   -1.2546   -0.7398 C   0  0  0  0  0  0  0  0  0  0  0  0
    5.5384   -1.3501   -0.9406 C   0  0  0  0  0  0  0  0  0  0  0  0
    4.9015   -2.3803   -0.3634 F   0  0  0  0  0  0  0  0  0  0  0  0
    0.8959   -2.4364   -0.8248 H   0  0  0  0  0  0  0  0  0  0  0  0
    0.9772   -1.7981   -2.4956 H   0  0  0  0  0  0  0  0  0  0  0  0
    0.7663   -0.6760   -1.1241 H   0  0  0  0  0  0  0  0  0  0  0  0
    3.1682   -2.2184   -0.8280 H   0  0  0  0  0  0  0  0  0  0  0  0
    5.0369    1.3968   -2.8762 H   0  0  0  0  0  0  0  0  0  0  0  0
    7.4532    1.5844   -2.5400 H   0  0  0  0  0  0  0  0  0  0  0  0
    9.4554   -1.7927   -0.1934 H   0  0  0  0  0  0  0  0  0  0  0  0
   11.4332    1.3615   -0.5338 H   0  0  0  0  0  0  0  0  0  0  0  0
   13.8240    1.4694   -0.1705 H   0  0  0  0  0  0  0  0  0  0  0  0
   15.0995   -0.5295    0.4967 H   0  0  0  0  0  0  0  0  0  0  0  0
   15.0730   -2.6986    1.5183 H   0  0  0  0  0  0  0  0  0  0  0  0
   14.5684   -3.5559    0.0624 H   0  0  0  0  0  0  0  0  0  0  0  0
   12.0324   -7.8166    2.3038 H   0  0  0  0  0  0  0  0  0  0  0  0
   10.4180   -7.9943    4.2005 H   0  0  0  0  0  0  0  0  0  0  0  0
    9.9368   -6.0367    5.6281 H   0  0  0  0  0  0  0  0  0  0  0  0
   11.1293   -3.8754    5.2640 H   0  0  0  0  0  0  0  0  0  0  0  0
   13.0572   -2.7206    3.4651 H   0  0  0  0  0  0  0  0  0  0  0  0
   11.4727   -2.8679    0.3496 H   0  0  0  0  0  0  0  0  0  0  0  0
    7.3931   -2.0115   -0.1243 H   0  0  0  0  0  0  0  0  0  0  0  0
  1  2  1  0  0  0  0
  1 31  1  0  0  0  0
  1 32  1  0  0  0  0
  1 33  1  0  0  0  0
  2  3  1  0  0  0  0
  2 34  1  0  0  0  0
  3  4  2  0  0  0  0
  3  5  1  0  0  0  0
  5  6  2  0  0  0  0
  5 29  1  0  0  0  0
  6  7  1  0  0  0  0
  6 35  1  0  0  0  0
  7  8  2  0  0  0  0
  7 36  1  0  0  0  0
  8  9  1  0  0  0  0
  8 28  1  0  0  0  0
  9 10  2  0  0  0  0
  9 11  1  0  0  0  0
 11 12  1  0  0  0  0
 11 37  1  0  0  0  0
 12 13  2  0  0  0  0
 12 27  1  0  0  0  0
 13 14  1  0  0  0  0
 13 38  1  0  0  0  0
 14 15  2  0  0  0  0
 14 39  1  0  0  0  0
 15 16  1  0  0  0  0
 15 40  1  0  0  0  0
 16 17  1  0  0  0  0
 16 27  2  0  0  0  0
 17 18  1  0  0  0  0
 17 41  1  0  0  0  0
 17 42  1  0  0  0  0
 18 19  2  0  0  0  0
 18 26  1  0  0  0  0
 19 20  1  0  0  0  0
 20 21  2  0  0  0  0
 20 25  1  0  0  0  0
 21 22  1  0  0  0  0
 21 43  1  0  0  0  0
 22 23  2  0  0  0  0
 22 44  1  0  0  0  0
 23 24  1  0  0  0  0
 23 45  1  0  0  0  0
 24 25  2  0  0  0  0
 24 46  1  0  0  0  0
 25 26  1  0  0  0  0
 26 47  1  0  0  0  0
 27 48  1  0  0  0  0
 28 29  2  0  0  0  0
 28 49  1  0  0  0  0
 29 30  1  0  0  0  0
M  END
$$$$
