
 OpenBabel01122422403D

 42 45  0  0  0  0  0  0  0  0999 V2000
    1.1929    0.6747   -0.6667 O   0  0  0  0  0  0  0  0  0  0  0  0
    2.3889    0.5731   -0.3951 C   0  0  0  0  0  0  0  0  0  0  0  0
    3.1520   -0.4594   -0.9103 N   0  0  0  0  0  0  0  0  0  0  0  0
    2.4694   -1.4249   -1.7679 C   0  0  0  0  0  0  0  0  0  0  0  0
    3.3743   -2.1812   -2.6880 C   0  0  0  0  0  0  0  0  0  0  0  0
    4.2005   -1.5367   -3.6088 C   0  0  0  0  0  0  0  0  0  0  0  0
    4.9934   -2.2876   -4.4777 C   0  0  0  0  0  0  0  0  0  0  0  0
    4.9393   -3.6802   -4.4204 C   0  0  0  0  0  0  0  0  0  0  0  0
    5.7998   -4.5612   -5.2362 C   0  0  0  0  0  0  0  0  0  0  0  0
    6.1782   -5.8263   -4.7589 C   0  0  0  0  0  0  0  0  0  0  0  0
    7.0333   -6.6154   -5.5100 C   0  0  0  0  0  0  0  0  0  0  0  0
    7.5366   -6.2475   -6.7049 N   0  0  0  0  0  0  0  0  0  0  0  0
    7.1500   -5.0445   -7.1714 C   0  0  0  0  0  0  0  0  0  0  0  0
    6.2980   -4.1852   -6.4911 C   0  0  0  0  0  0  0  0  0  0  0  0
    4.1108   -4.3173   -3.5548 N   0  0  0  0  0  0  0  0  0  0  0  0
    3.3479   -3.5664   -2.7291 C   0  0  0  0  0  0  0  0  0  0  0  0
    3.0404    1.6351    0.4329 C   0  0  0  0  0  0  0  0  0  0  0  0
    2.3208    2.8105    0.5321 C   0  0  0  0  0  0  0  0  0  0  0  0
    2.9194    3.9210    1.1057 C   0  0  0  0  0  0  0  0  0  0  0  0
    4.1819    3.7921    1.6403 C   0  0  0  0  0  0  0  0  0  0  0  0
    4.7491    4.9152    2.2544 C   0  0  0  0  0  0  0  0  0  0  0  0
    5.7526    4.7253    3.1777 C   0  0  0  0  0  0  0  0  0  0  0  0
    6.1124    5.7503    3.9596 F   0  0  0  0  0  0  0  0  0  0  0  0
    6.3046    3.4659    3.3420 C   0  0  0  0  0  0  0  0  0  0  0  0
    7.2138    3.2631    4.3055 F   0  0  0  0  0  0  0  0  0  0  0  0
    5.8922    2.3914    2.5387 C   0  0  0  0  0  0  0  0  0  0  0  0
    4.7880    2.5076    1.6907 C   0  0  0  0  0  0  0  0  0  0  0  0
    4.2723    1.4528    0.9964 N   0  0  0  0  0  0  0  0  0  0  0  0
    4.0653   -0.6495   -0.5238 H   0  0  0  0  0  0  0  0  0  0  0  0
    1.7263   -0.9042   -2.3875 H   0  0  0  0  0  0  0  0  0  0  0  0
    1.9132   -2.1035   -1.1121 H   0  0  0  0  0  0  0  0  0  0  0  0
    4.2253   -0.4512   -3.6633 H   0  0  0  0  0  0  0  0  0  0  0  0
    5.6569   -1.7720   -5.1645 H   0  0  0  0  0  0  0  0  0  0  0  0
    5.8233   -6.1876   -3.7948 H   0  0  0  0  0  0  0  0  0  0  0  0
    7.3454   -7.5933   -5.1543 H   0  0  0  0  0  0  0  0  0  0  0  0
    7.5598   -4.7700   -8.1385 H   0  0  0  0  0  0  0  0  0  0  0  0
    6.0323   -3.2398   -6.9497 H   0  0  0  0  0  0  0  0  0  0  0  0
    2.6786   -4.1396   -2.0938 H   0  0  0  0  0  0  0  0  0  0  0  0
    1.2941    2.8751    0.1784 H   0  0  0  0  0  0  0  0  0  0  0  0
    2.3623    4.8458    1.1664 H   0  0  0  0  0  0  0  0  0  0  0  0
    4.3642    5.9115    2.0671 H   0  0  0  0  0  0  0  0  0  0  0  0
    6.3911    1.4359    2.6607 H   0  0  0  0  0  0  0  0  0  0  0  0
  1  2  2  0  0  0  0
  2  3  1  0  0  0  0
  2 17  1  0  0  0  0
  3  4  1  0  0  0  0
  3 29  1  0  0  0  0
  4  5  1  0  0  0  0
  4 30  1  0  0  0  0
  4 31  1  0  0  0  0
  5  6  2  0  0  0  0
  5 16  1  0  0  0  0
  6  7  1  0  0  0  0
  6 32  1  0  0  0  0
  7  8  2  0  0  0  0
  7 33  1  0  0  0  0
  8  9  1  0  0  0  0
  8 15  1  0  0  0  0
  9 10  2  0  0  0  0
  9 14  1  0  0  0  0
 10 11  1  0  0  0  0
 10 34  1  0  0  0  0
 11 12  2  0  0  0  0
 11 35  1  0  0  0  0
 12 13  1  0  0  0  0
 13 14  2  0  0  0  0
 13 36  1  0  0  0  0
 14 37  1  0  0  0  0
 15 16  2  0  0  0  0
 16 38  1  0  0  0  0
 17 18  2  0  0  0  0
 17 28  1  0  0  0  0
 18 19  1  0  0  0  0
 18 39  1  0  0  0  0
 19 20  2  0  0  0  0
 19 40  1  0  0  0  0
 20 21  1  0  0  0  0
 20 27  1  0  0  0  0
 21 22  2  0  0  0  0
 21 41  1  0  0  0  0
 22 23  1  0  0  0  0
 22 24  1  0  0  0  0
 24 25  1  0  0  0  0
 24 26  2  0  0  0  0
 26 27  1  0  0  0  0
 26 42  1  0  0  0  0
 27 28  2  0  0  0  0
M  END
$$$$
