
 OpenBabel01122422403D

 39 42  0  0  0  0  0  0  0  0999 V2000
    0.9893   -0.2267    0.2566 O   0  0  0  0  0  0  0  0  0  0  0  0
    2.1993   -0.1605    0.1292 C   0  0  0  0  0  0  0  0  0  0  0  0
    2.9283    0.9809    0.5940 N   0  0  0  0  0  0  0  0  0  0  0  0
    2.2813    2.0943    1.1080 C   0  0  0  0  0  0  0  0  0  0  0  0
    1.4406    2.1113    2.2000 C   0  0  0  0  0  0  0  0  0  0  0  0
    1.3131    3.4768    2.4767 C   0  0  0  0  0  0  0  0  0  0  0  0
    0.6674    4.0756    3.4773 O   0  0  0  0  0  0  0  0  0  0  0  0
    1.9843    4.2692    1.6494 N   0  0  0  0  0  0  0  0  0  0  0  0
    2.4608    3.4153    0.7129 N   0  0  0  0  0  0  0  0  0  0  0  0
    3.0330    3.8902   -0.4952 C   0  0  0  0  0  0  0  0  0  0  0  0
    3.5623    5.1853   -0.5549 C   0  0  0  0  0  0  0  0  0  0  0  0
    4.1326    5.6468   -1.7468 C   0  0  0  0  0  0  0  0  0  0  0  0
    4.1400    4.8336   -2.8749 C   0  0  0  0  0  0  0  0  0  0  0  0
    4.6787    5.2821   -4.0156 F   0  0  0  0  0  0  0  0  0  0  0  0
    3.5886    3.5627   -2.8415 C   0  0  0  0  0  0  0  0  0  0  0  0
    3.0399    3.0985   -1.6531 C   0  0  0  0  0  0  0  0  0  0  0  0
    2.4611    1.8925   -1.6878 F   0  0  0  0  0  0  0  0  0  0  0  0
    2.9924   -1.1590   -0.6131 C   0  0  0  0  0  0  0  0  0  0  0  0
    4.2927   -1.4470   -0.2117 C   0  0  0  0  0  0  0  0  0  0  0  0
    4.8301   -0.7752    0.8204 F   0  0  0  0  0  0  0  0  0  0  0  0
    5.0543   -2.4264   -0.8630 C   0  0  0  0  0  0  0  0  0  0  0  0
    6.3397   -2.7822   -0.4288 C   0  0  0  0  0  0  0  0  0  0  0  0
    7.0354   -3.7848   -1.0899 C   0  0  0  0  0  0  0  0  0  0  0  0
    6.4297   -4.3805   -2.1795 C   0  0  0  0  0  0  0  0  0  0  0  0
    5.1989   -4.0474   -2.6334 N   0  0  0  0  0  0  0  0  0  0  0  0
    4.5156   -3.0974   -1.9787 C   0  0  0  0  0  0  0  0  0  0  0  0
    3.2297   -2.7639   -2.3955 C   0  0  0  0  0  0  0  0  0  0  0  0
    2.4528   -1.8163   -1.7168 C   0  0  0  0  0  0  0  0  0  0  0  0
    3.8942    1.0932    0.3054 H   0  0  0  0  0  0  0  0  0  0  0  0
    1.0716    1.2687    2.7628 H   0  0  0  0  0  0  0  0  0  0  0  0
    0.2008    3.4248    4.0240 H   0  0  0  0  0  0  0  0  0  0  0  0
    3.5597    5.8381    0.3182 H   0  0  0  0  0  0  0  0  0  0  0  0
    4.5674    6.6416   -1.8046 H   0  0  0  0  0  0  0  0  0  0  0  0
    3.5675    2.9495   -3.7359 H   0  0  0  0  0  0  0  0  0  0  0  0
    6.7910   -2.2994    0.4356 H   0  0  0  0  0  0  0  0  0  0  0  0
    8.0199   -4.0985   -0.7596 H   0  0  0  0  0  0  0  0  0  0  0  0
    6.9282   -5.1724   -2.7324 H   0  0  0  0  0  0  0  0  0  0  0  0
    2.8168   -3.2736   -3.2659 H   0  0  0  0  0  0  0  0  0  0  0  0
    1.4450   -1.5961   -2.0660 H   0  0  0  0  0  0  0  0  0  0  0  0
  1  2  2  0  0  0  0
  2  3  1  0  0  0  0
  2 18  1  0  0  0  0
  3  4  1  0  0  0  0
  3 29  1  0  0  0  0
  4  5  2  0  0  0  0
  4  9  1  0  0  0  0
  5  6  1  0  0  0  0
  5 30  1  0  0  0  0
  6  7  1  0  0  0  0
  6  8  2  0  0  0  0
  7 31  1  0  0  0  0
  8  9  1  0  0  0  0
  9 10  1  0  0  0  0
 10 11  2  0  0  0  0
 10 16  1  0  0  0  0
 11 12  1  0  0  0  0
 11 32  1  0  0  0  0
 12 13  2  0  0  0  0
 12 33  1  0  0  0  0
 13 14  1  0  0  0  0
 13 15  1  0  0  0  0
 15 16  2  0  0  0  0
 15 34  1  0  0  0  0
 16 17  1  0  0  0  0
 18 19  2  0  0  0  0
 18 28  1  0  0  0  0
 19 20  1  0  0  0  0
 19 21  1  0  0  0  0
 21 22  2  0  0  0  0
 21 26  1  0  0  0  0
 22 23  1  0  0  0  0
 22 35  1  0  0  0  0
 23 24  2  0  0  0  0
 23 36  1  0  0  0  0
 24 25  1  0  0  0  0
 24 37  1  0  0  0  0
 25 26  2  0  0  0  0
 26 27  1  0  0  0  0
 27 28  2  0  0  0  0
 27 38  1  0  0  0  0
 28 39  1  0  0  0  0
M  END
$$$$
