
 OpenBabel01122422403D

 47 50  0  0  0  0  0  0  0  0999 V2000
    0.9385    0.1712    0.1460 O   0  0  0  0  0  0  0  0  0  0  0  0
    2.1607    0.1603    0.1962 C   0  0  0  0  0  0  0  0  0  0  0  0
    2.8704   -0.0684    1.3628 N   0  0  0  0  0  0  0  0  0  0  0  0
    2.1854   -0.3180    2.6227 C   0  0  0  0  0  0  0  0  0  0  0  0
    3.1674   -0.5840    3.7671 C   0  0  0  0  0  0  0  0  0  0  0  0
    2.4610   -0.7926    5.0911 C   0  0  0  0  0  0  0  0  0  0  0  0
    2.2410    0.2653    5.9091 C   0  0  0  0  0  0  0  0  0  0  0  0
    1.5603    0.1452    7.1893 C   0  0  0  0  0  0  0  0  0  0  0  0
    1.1426   -1.0643    7.5943 C   0  0  0  0  0  0  0  0  0  0  0  0
    1.3770   -2.1626    6.7754 N   0  0  0  0  0  0  0  0  0  0  0  0
    1.0583   -3.4816    6.9776 C   0  0  0  0  0  0  0  0  0  0  0  0
    1.5429   -4.1474    5.8774 C   0  0  0  0  0  0  0  0  0  0  0  0
    2.1420   -3.2814    4.9962 N   0  0  0  0  0  0  0  0  0  0  0  0
    2.0266   -2.0889    5.5479 C   0  0  0  0  0  0  0  0  0  0  0  0
    2.9713    0.4091   -1.0307 C   0  0  0  0  0  0  0  0  0  0  0  0
    4.1696   -0.3148   -1.1927 C   0  0  0  0  0  0  0  0  0  0  0  0
    4.9306   -0.1968   -2.3572 C   0  0  0  0  0  0  0  0  0  0  0  0
    4.4908    0.6195   -3.3914 C   0  0  0  0  0  0  0  0  0  0  0  0
    3.3069    1.3427   -3.2472 C   0  0  0  0  0  0  0  0  0  0  0  0
    2.5471    1.2688   -2.0620 C   0  0  0  0  0  0  0  0  0  0  0  0
    1.3417    2.1452   -2.0304 C   0  0  0  0  0  0  0  0  0  0  0  0
    0.7024    2.2955   -3.0713 O   0  0  0  0  0  0  0  0  0  0  0  0
    0.9410    2.9372   -0.8373 C   0  0  0  0  0  0  0  0  0  0  0  0
   -0.4055    3.3151   -0.7135 C   0  0  0  0  0  0  0  0  0  0  0  0
   -0.8306    4.0472    0.3969 C   0  0  0  0  0  0  0  0  0  0  0  0
    0.0902    4.3986    1.3754 C   0  0  0  0  0  0  0  0  0  0  0  0
   -0.3158    5.0908    2.4475 F   0  0  0  0  0  0  0  0  0  0  0  0
    1.4321    4.0527    1.2553 C   0  0  0  0  0  0  0  0  0  0  0  0
    1.8658    3.3374    0.1373 C   0  0  0  0  0  0  0  0  0  0  0  0
    3.8793   -0.0371    1.3641 H   0  0  0  0  0  0  0  0  0  0  0  0
    1.5055   -1.1650    2.4795 H   0  0  0  0  0  0  0  0  0  0  0  0
    1.5730    0.5658    2.8393 H   0  0  0  0  0  0  0  0  0  0  0  0
    3.8741    0.2529    3.8465 H   0  0  0  0  0  0  0  0  0  0  0  0
    3.7840   -1.4618    3.5335 H   0  0  0  0  0  0  0  0  0  0  0  0
    2.5532    1.2675    5.6234 H   0  0  0  0  0  0  0  0  0  0  0  0
    1.4040    1.0347    7.7884 H   0  0  0  0  0  0  0  0  0  0  0  0
    0.6263   -1.2346    8.5277 H   0  0  0  0  0  0  0  0  0  0  0  0
    0.5338   -3.8198    7.8588 H   0  0  0  0  0  0  0  0  0  0  0  0
    1.4907   -5.2102    5.6706 H   0  0  0  0  0  0  0  0  0  0  0  0
    4.5077   -1.0165   -0.4339 H   0  0  0  0  0  0  0  0  0  0  0  0
    5.8503   -0.7670   -2.4672 H   0  0  0  0  0  0  0  0  0  0  0  0
    5.0604    0.6876   -4.3155 H   0  0  0  0  0  0  0  0  0  0  0  0
    2.9707    1.9715   -4.0720 H   0  0  0  0  0  0  0  0  0  0  0  0
   -1.1270    3.0264   -1.4765 H   0  0  0  0  0  0  0  0  0  0  0  0
   -1.8720    4.3355    0.5040 H   0  0  0  0  0  0  0  0  0  0  0  0
    2.1313    4.3428    2.0328 H   0  0  0  0  0  0  0  0  0  0  0  0
    2.9197    3.0964    0.0479 H   0  0  0  0  0  0  0  0  0  0  0  0
  1  2  2  0  0  0  0
  2  3  1  0  0  0  0
  2 15  1  0  0  0  0
  3  4  1  0  0  0  0
  3 30  1  0  0  0  0
  4  5  1  0  0  0  0
  4 31  1  0  0  0  0
  4 32  1  0  0  0  0
  5  6  1  0  0  0  0
  5 33  1  0  0  0  0
  5 34  1  0  0  0  0
  6  7  2  0  0  0  0
  6 14  1  0  0  0  0
  7  8  1  0  0  0  0
  7 35  1  0  0  0  0
  8  9  2  0  0  0  0
  8 36  1  0  0  0  0
  9 10  1  0  0  0  0
  9 37  1  0  0  0  0
 10 11  1  0  0  0  0
 10 14  1  0  0  0  0
 11 12  2  0  0  0  0
 11 38  1  0  0  0  0
 12 13  1  0  0  0  0
 12 39  1  0  0  0  0
 13 14  2  0  0  0  0
 15 16  2  0  0  0  0
 15 20  1  0  0  0  0
 16 17  1  0  0  0  0
 16 40  1  0  0  0  0
 17 18  2  0  0  0  0
 17 41  1  0  0  0  0
 18 19  1  0  0  0  0
 18 42  1  0  0  0  0
 19 20  2  0  0  0  0
 19 43  1  0  0  0  0
 20 21  1  0  0  0  0
 21 22  2  0  0  0  0
 21 23  1  0  0  0  0
 23 24  2  0  0  0  0
 23 29  1  0  0  0  0
 24 25  1  0  0  0  0
 24 44  1  0  0  0  0
 25 26  2  0  0  0  0
 25 45  1  0  0  0  0
 26 27  1  0  0  0  0
 26 28  1  0  0  0  0
 28 29  2  0  0  0  0
 28 46  1  0  0  0  0
 29 47  1  0  0  0  0
M  END
$$$$
