
 OpenBabel01122422353D

 49 52  0  0  1  0  0  0  0  0999 V2000
    2.0179    1.7826    0.9686 O   0  0  0  0  0  0  0  0  0  0  0  0
    2.7389    0.9162    0.4852 C   0  0  0  0  0  0  0  0  0  0  0  0
    2.8489   -0.3587    0.9935 N   0  0  0  0  0  0  0  0  0  0  0  0
    2.1859   -0.7748    2.2186 C   0  0  1  0  0  0  0  0  0  0  0  0
    1.3044   -2.0124    1.9590 C   0  0  0  0  0  0  0  0  0  0  0  0
    0.2194   -1.7621    0.9184 C   0  0  0  0  0  0  0  0  0  0  0  0
   -0.5926   -2.9256    0.7904 O   0  0  0  0  0  0  0  0  0  0  0  0
    3.1707   -1.0223    3.3602 C   0  0  0  0  0  0  0  0  0  0  0  0
    4.5623   -0.9461    3.2157 C   0  0  0  0  0  0  0  0  0  0  0  0
    5.4201   -1.1667    4.3072 C   0  0  0  0  0  0  0  0  0  0  0  0
    4.9274   -1.4578    5.5900 C   0  0  0  0  0  0  0  0  0  0  0  0
    5.8187   -1.6664    6.7603 C   0  0  0  0  0  0  0  0  0  0  0  0
    7.0554   -1.0057    6.8829 C   0  0  0  0  0  0  0  0  0  0  0  0
    7.8641   -1.1680    8.0149 C   0  0  0  0  0  0  0  0  0  0  0  0
    7.4513   -1.9898    9.0586 C   0  0  0  0  0  0  0  0  0  0  0  0
    6.2420   -2.6669    8.9610 C   0  0  0  0  0  0  0  0  0  0  0  0
    5.4452   -2.5150    7.8216 C   0  0  0  0  0  0  0  0  0  0  0  0
    3.5305   -1.5167    5.7249 C   0  0  0  0  0  0  0  0  0  0  0  0
    2.6724   -1.3056    4.6397 C   0  0  0  0  0  0  0  0  0  0  0  0
    3.5480    1.1303   -0.7089 C   0  0  0  0  0  0  0  0  0  0  0  0
    3.6056    2.2803   -1.4621 C   0  0  0  0  0  0  0  0  0  0  0  0
    2.9648    3.3973   -1.2484 F   0  0  0  0  0  0  0  0  0  0  0  0
    4.4518    2.0262   -2.5027 N   0  0  0  0  0  0  0  0  0  0  0  0
    4.8214    2.8496   -3.5661 C   0  0  0  0  0  0  0  0  0  0  0  0
    5.6656    2.3743   -4.4956 C   0  0  0  0  0  0  0  0  0  0  0  0
    6.1699    1.0150   -4.3558 C   0  0  0  0  0  0  0  0  0  0  0  0
    5.8082    0.2274   -3.3231 C   0  0  0  0  0  0  0  0  0  0  0  0
    4.9031    0.7204   -2.3386 C   0  0  0  0  0  0  0  0  0  0  0  0
    4.3789    0.1563   -1.2652 N   0  0  0  0  0  0  0  0  0  0  0  0
    3.5017   -0.9800    0.5253 H   0  0  0  0  0  0  0  0  0  0  0  0
    1.5348    0.0454    2.5489 H   0  0  0  0  0  0  0  0  0  0  0  0
    0.8087   -2.3355    2.8833 H   0  0  0  0  0  0  0  0  0  0  0  0
    1.9201   -2.8670    1.6492 H   0  0  0  0  0  0  0  0  0  0  0  0
    0.6389   -1.5309   -0.0652 H   0  0  0  0  0  0  0  0  0  0  0  0
   -0.4299   -0.9346    1.2209 H   0  0  0  0  0  0  0  0  0  0  0  0
   -0.0314   -3.6381    0.4392 H   0  0  0  0  0  0  0  0  0  0  0  0
    5.0155   -0.7011    2.2577 H   0  0  0  0  0  0  0  0  0  0  0  0
    6.4920   -1.1051    4.1289 H   0  0  0  0  0  0  0  0  0  0  0  0
    7.4014   -0.3293    6.1050 H   0  0  0  0  0  0  0  0  0  0  0  0
    8.8111   -0.6389    8.0841 H   0  0  0  0  0  0  0  0  0  0  0  0
    8.0690   -2.1013    9.9455 H   0  0  0  0  0  0  0  0  0  0  0  0
    5.9102   -3.3119    9.7704 H   0  0  0  0  0  0  0  0  0  0  0  0
    4.5152   -3.0774    7.7775 H   0  0  0  0  0  0  0  0  0  0  0  0
    3.0762   -1.7068    6.6950 H   0  0  0  0  0  0  0  0  0  0  0  0
    1.5996   -1.3520    4.8175 H   0  0  0  0  0  0  0  0  0  0  0  0
    4.3980    3.8470   -3.5934 H   0  0  0  0  0  0  0  0  0  0  0  0
    5.9791    2.9717   -5.3466 H   0  0  0  0  0  0  0  0  0  0  0  0
    6.8545    0.6527   -5.1171 H   0  0  0  0  0  0  0  0  0  0  0  0
    6.1869   -0.7832   -3.2228 H   0  0  0  0  0  0  0  0  0  0  0  0
  1  2  2  0  0  0  0
  2  3  1  0  0  0  0
  2 20  1  0  0  0  0
  3  4  1  0  0  0  0
  3 30  1  0  0  0  0
  4  5  1  0  0  0  0
  4  8  1  0  0  0  0
  4 31  1  1  0  0  0
  5  6  1  0  0  0  0
  5 32  1  0  0  0  0
  5 33  1  0  0  0  0
  6  7  1  0  0  0  0
  6 34  1  0  0  0  0
  6 35  1  0  0  0  0
  7 36  1  0  0  0  0
  8  9  2  0  0  0  0
  8 19  1  0  0  0  0
  9 10  1  0  0  0  0
  9 37  1  0  0  0  0
 10 11  2  0  0  0  0
 10 38  1  0  0  0  0
 11 12  1  0  0  0  0
 11 18  1  0  0  0  0
 12 13  2  0  0  0  0
 12 17  1  0  0  0  0
 13 14  1  0  0  0  0
 13 39  1  0  0  0  0
 14 15  2  0  0  0  0
 14 40  1  0  0  0  0
 15 16  1  0  0  0  0
 15 41  1  0  0  0  0
 16 17  2  0  0  0  0
 16 42  1  0  0  0  0
 17 43  1  0  0  0  0
 18 19  2  0  0  0  0
 18 44  1  0  0  0  0
 19 45  1  0  0  0  0
 20 21  2  0  0  0  0
 20 29  1  0  0  0  0
 21 22  1  0  0  0  0
 21 23  1  0  0  0  0
 23 24  1  0  0  0  0
 23 28  1  0  0  0  0
 24 25  2  0  0  0  0
 24 46  1  0  0  0  0
 25 26  1  0  0  0  0
 25 47  1  0  0  0  0
 26 27  2  0  0  0  0
 26 48  1  0  0  0  0
 27 28  1  0  0  0  0
 27 49  1  0  0  0  0
 28 29  2  0  0  0  0
M  END
$$$$
