
 OpenBabel01122422403D

 42 45  0  0  0  0  0  0  0  0999 V2000
    2.3556    1.4607    0.3952 O   0  0  0  0  0  0  0  0  0  0  0  0
    3.2519    0.7722   -0.0788 C   0  0  0  0  0  0  0  0  0  0  0  0
    3.3647    0.3218   -1.3913 N   0  0  0  0  0  0  0  0  0  0  0  0
    2.5084    0.5997   -2.4832 C   0  0  0  0  0  0  0  0  0  0  0  0
    1.3477    1.3608   -2.3507 C   0  0  0  0  0  0  0  0  0  0  0  0
    0.5499    1.6343   -3.4591 C   0  0  0  0  0  0  0  0  0  0  0  0
    0.9182    1.1754   -4.7214 C   0  0  0  0  0  0  0  0  0  0  0  0
    2.0893    0.4366   -4.9000 C   0  0  0  0  0  0  0  0  0  0  0  0
    2.5353    0.0195   -6.1845 N   0  0  0  0  0  0  0  0  0  0  0  0
    2.0868    0.5294   -7.3986 C   0  0  0  0  0  0  0  0  0  0  0  0
    1.2480    1.4155   -7.5270 O   0  0  0  0  0  0  0  0  0  0  0  0
    2.7025   -0.0132   -8.5914 C   0  0  0  0  0  0  0  0  0  0  0  0
    3.6472   -1.0013   -8.7531 C   0  0  0  0  0  0  0  0  0  0  0  0
    4.2217   -1.6898   -7.8086 F   0  0  0  0  0  0  0  0  0  0  0  0
    3.8770   -1.1330  -10.0903 N   0  0  0  0  0  0  0  0  0  0  0  0
    3.1500   -0.2859  -10.8390 N   0  0  0  0  0  0  0  0  0  0  0  0
    2.4387    0.3904   -9.9295 C   0  0  0  0  0  0  0  0  0  0  0  0
    2.8594    0.1160   -3.7632 C   0  0  0  0  0  0  0  0  0  0  0  0
    4.4086    0.3730    0.7982 C   0  0  0  0  0  0  0  0  0  0  0  0
    4.4453    0.7541    2.1411 C   0  0  0  0  0  0  0  0  0  0  0  0
    5.6158    0.5169    2.8803 C   0  0  0  0  0  0  0  0  0  0  0  0
    5.7631    0.9172    4.2253 C   0  0  0  0  0  0  0  0  0  0  0  0
    6.9825    0.7507    4.8889 C   0  0  0  0  0  0  0  0  0  0  0  0
    8.0514    0.1664    4.2229 C   0  0  0  0  0  0  0  0  0  0  0  0
    9.2335    0.0485    4.8412 F   0  0  0  0  0  0  0  0  0  0  0  0
    7.9184   -0.2858    2.9165 C   0  0  0  0  0  0  0  0  0  0  0  0
    6.7021   -0.1130    2.2367 C   0  0  0  0  0  0  0  0  0  0  0  0
    6.5280   -0.5181    0.9108 C   0  0  0  0  0  0  0  0  0  0  0  0
    5.4172   -0.2916    0.1728 N   0  0  0  0  0  0  0  0  0  0  0  0
    4.2070   -0.2195   -1.5707 H   0  0  0  0  0  0  0  0  0  0  0  0
    1.0295    1.7635   -1.3950 H   0  0  0  0  0  0  0  0  0  0  0  0
   -0.3580    2.2208   -3.3429 H   0  0  0  0  0  0  0  0  0  0  0  0
    0.2524    1.4105   -5.5461 H   0  0  0  0  0  0  0  0  0  0  0  0
    3.3220   -0.6185   -6.2149 H   0  0  0  0  0  0  0  0  0  0  0  0
    4.5102   -1.7724  -10.5585 H   0  0  0  0  0  0  0  0  0  0  0  0
    1.7503    1.1592  -10.2620 H   0  0  0  0  0  0  0  0  0  0  0  0
    3.7625   -0.4769   -3.8782 H   0  0  0  0  0  0  0  0  0  0  0  0
    3.5971    1.2699    2.5841 H   0  0  0  0  0  0  0  0  0  0  0  0
    4.9364    1.3833    4.7598 H   0  0  0  0  0  0  0  0  0  0  0  0
    7.1118    1.0868    5.9139 H   0  0  0  0  0  0  0  0  0  0  0  0
    8.7773   -0.7398    2.4311 H   0  0  0  0  0  0  0  0  0  0  0  0
    7.3214   -1.0379    0.3796 H   0  0  0  0  0  0  0  0  0  0  0  0
  1  2  2  0  0  0  0
  2  3  1  0  0  0  0
  2 19  1  0  0  0  0
  3  4  1  0  0  0  0
  3 30  1  0  0  0  0
  4  5  2  0  0  0  0
  4 18  1  0  0  0  0
  5  6  1  0  0  0  0
  5 31  1  0  0  0  0
  6  7  2  0  0  0  0
  6 32  1  0  0  0  0
  7  8  1  0  0  0  0
  7 33  1  0  0  0  0
  8  9  1  0  0  0  0
  8 18  2  0  0  0  0
  9 10  1  0  0  0  0
  9 34  1  0  0  0  0
 10 11  2  0  0  0  0
 10 12  1  0  0  0  0
 12 13  2  0  0  0  0
 12 17  1  0  0  0  0
 13 14  1  0  0  0  0
 13 15  1  0  0  0  0
 15 16  1  0  0  0  0
 15 35  1  0  0  0  0
 16 17  2  0  0  0  0
 17 36  1  0  0  0  0
 18 37  1  0  0  0  0
 19 20  2  0  0  0  0
 19 29  1  0  0  0  0
 20 21  1  0  0  0  0
 20 38  1  0  0  0  0
 21 22  2  0  0  0  0
 21 27  1  0  0  0  0
 22 23  1  0  0  0  0
 22 39  1  0  0  0  0
 23 24  2  0  0  0  0
 23 40  1  0  0  0  0
 24 25  1  0  0  0  0
 24 26  1  0  0  0  0
 26 27  2  0  0  0  0
 26 41  1  0  0  0  0
 27 28  1  0  0  0  0
 28 29  2  0  0  0  0
 28 42  1  0  0  0  0
M  END
$$$$
