
 OpenBabel01122422403D

 51 54  0  0  1  0  0  0  0  0999 V2000
    4.4233   -0.3939    1.1235 C   0  0  0  0  0  0  0  0  0  0  0  0
    4.1365   -0.6557   -0.3590 C   0  0  3  0  0  0  0  0  0  0  0  0
    2.8081   -1.1873   -0.5258 O   0  0  0  0  0  0  0  0  0  0  0  0
    2.5635   -2.4647   -0.0902 C   0  0  0  0  0  0  0  0  0  0  0  0
    1.2339   -2.7520    0.2366 C   0  0  0  0  0  0  0  0  0  0  0  0
    0.8661   -4.0213    0.7105 C   0  0  0  0  0  0  0  0  0  0  0  0
    1.8323   -5.0251    0.8592 C   0  0  0  0  0  0  0  0  0  0  0  0
    1.4283   -6.3662    1.3850 C   0  0  0  0  0  0  0  0  0  0  0  0
    0.2817   -6.7736    1.2378 O   0  0  0  0  0  0  0  0  0  0  0  0
    2.4031   -7.0792    2.0495 N   0  0  0  0  0  0  0  0  0  0  0  0
    2.1844   -8.4157    2.5736 C   0  0  0  0  0  0  0  0  0  0  0  0
    2.5434   -9.4937    1.5715 C   0  0  0  0  0  0  0  0  0  0  0  0
    1.5620  -10.0056    0.7218 C   0  0  0  0  0  0  0  0  0  0  0  0
    1.9149  -10.9579   -0.2331 C   0  0  0  0  0  0  0  0  0  0  0  0
    3.2406  -11.3674   -0.3253 C   0  0  0  0  0  0  0  0  0  0  0  0
    3.6962  -12.3185   -1.3381 C   0  0  0  0  0  0  0  0  0  0  0  0
    4.9893  -12.6660   -1.3815 C   0  0  0  0  0  0  0  0  0  0  0  0
    5.9660  -12.1211   -0.4032 C   0  0  0  0  0  0  0  0  0  0  0  0
    7.1412  -12.4616   -0.4413 O   0  0  0  0  0  0  0  0  0  0  0  0
    5.4848  -11.2298    0.5123 N   0  0  0  0  0  0  0  0  0  0  0  0
    4.1569  -10.8184    0.5751 C   0  0  0  0  0  0  0  0  0  0  0  0
    3.8421   -9.8979    1.5133 N   0  0  0  0  0  0  0  0  0  0  0  0
    3.1526   -4.7515    0.4838 C   0  0  0  0  0  0  0  0  0  0  0  0
    3.5142   -3.4802    0.0134 C   0  0  0  0  0  0  0  0  0  0  0  0
    4.2997    0.6567   -1.1220 C   0  0  0  0  0  0  0  0  0  0  0  0
    5.5750    1.0177   -1.6009 C   0  0  0  0  0  0  0  0  0  0  0  0
    5.7873    2.2499   -2.2224 C   0  0  0  0  0  0  0  0  0  0  0  0
    4.7287    3.1396   -2.3775 C   0  0  0  0  0  0  0  0  0  0  0  0
    3.4583    2.7946   -1.9175 C   0  0  0  0  0  0  0  0  0  0  0  0
    3.2442    1.5629   -1.2909 C   0  0  0  0  0  0  0  0  0  0  0  0
    4.5906   -1.3337    1.6589 H   0  0  0  0  0  0  0  0  0  0  0  0
    3.5708    0.0975    1.6068 H   0  0  0  0  0  0  0  0  0  0  0  0
    5.3108    0.2312    1.2696 H   0  0  0  0  0  0  0  0  0  0  0  0
    4.8704   -1.3483   -0.7853 H   0  0  0  0  0  0  0  0  0  0  0  0
    0.4743   -1.9795    0.1323 H   0  0  0  0  0  0  0  0  0  0  0  0
   -0.1719   -4.2194    0.9676 H   0  0  0  0  0  0  0  0  0  0  0  0
    3.3182   -6.6819    2.2008 H   0  0  0  0  0  0  0  0  0  0  0  0
    1.1465   -8.5260    2.9060 H   0  0  0  0  0  0  0  0  0  0  0  0
    2.8263   -8.5206    3.4557 H   0  0  0  0  0  0  0  0  0  0  0  0
    0.5356   -9.6533    0.7907 H   0  0  0  0  0  0  0  0  0  0  0  0
    1.1560  -11.3553   -0.9011 H   0  0  0  0  0  0  0  0  0  0  0  0
    2.9833  -12.7124   -2.0534 H   0  0  0  0  0  0  0  0  0  0  0  0
    5.3841  -13.3494   -2.1242 H   0  0  0  0  0  0  0  0  0  0  0  0
    6.1252  -10.8422    1.1866 H   0  0  0  0  0  0  0  0  0  0  0  0
    3.9160   -5.5234    0.5180 H   0  0  0  0  0  0  0  0  0  0  0  0
    4.5466   -3.3299   -0.2813 H   0  0  0  0  0  0  0  0  0  0  0  0
    6.4200    0.3436   -1.4761 H   0  0  0  0  0  0  0  0  0  0  0  0
    6.7797    2.5177   -2.5767 H   0  0  0  0  0  0  0  0  0  0  0  0
    4.8933    4.1031   -2.8534 H   0  0  0  0  0  0  0  0  0  0  0  0
    2.6330    3.4918   -2.0386 H   0  0  0  0  0  0  0  0  0  0  0  0
    2.2491    1.3201   -0.9243 H   0  0  0  0  0  0  0  0  0  0  0  0
  1  2  1  0  0  0  0
  1 31  1  0  0  0  0
  1 32  1  0  0  0  0
  1 33  1  0  0  0  0
  2  3  1  0  0  0  0
  2 25  1  0  0  0  0
  2 34  1  0  0  0  0
  3  4  1  0  0  0  0
  4  5  2  0  0  0  0
  4 24  1  0  0  0  0
  5  6  1  0  0  0  0
  5 35  1  0  0  0  0
  6  7  2  0  0  0  0
  6 36  1  0  0  0  0
  7  8  1  0  0  0  0
  7 23  1  0  0  0  0
  8  9  2  0  0  0  0
  8 10  1  0  0  0  0
 10 11  1  0  0  0  0
 10 37  1  0  0  0  0
 11 12  1  0  0  0  0
 11 38  1  0  0  0  0
 11 39  1  0  0  0  0
 12 13  2  0  0  0  0
 12 22  1  0  0  0  0
 13 14  1  0  0  0  0
 13 40  1  0  0  0  0
 14 15  2  0  0  0  0
 14 41  1  0  0  0  0
 15 16  1  0  0  0  0
 15 21  1  0  0  0  0
 16 17  2  0  0  0  0
 16 42  1  0  0  0  0
 17 18  1  0  0  0  0
 17 43  1  0  0  0  0
 18 19  2  0  0  0  0
 18 20  1  0  0  0  0
 20 21  1  0  0  0  0
 20 44  1  0  0  0  0
 21 22  2  0  0  0  0
 23 24  2  0  0  0  0
 23 45  1  0  0  0  0
 24 46  1  0  0  0  0
 25 26  2  0  0  0  0
 25 30  1  0  0  0  0
 26 27  1  0  0  0  0
 26 47  1  0  0  0  0
 27 28  2  0  0  0  0
 27 48  1  0  0  0  0
 28 29  1  0  0  0  0
 28 49  1  0  0  0  0
 29 30  2  0  0  0  0
 29 50  1  0  0  0  0
 30 51  1  0  0  0  0
M  END
$$$$
