
 OpenBabel01122422403D

 49 52  0  0  0  0  0  0  0  0999 V2000
    1.2266    0.2446    4.4448 C   0  0  0  0  0  0  0  0  0  0  0  0
    2.6530    0.2679    4.3942 O   0  0  0  0  0  0  0  0  0  0  0  0
    3.1508    0.6490    3.1941 C   0  0  0  0  0  0  0  0  0  0  0  0
    2.4953    0.9205    2.1994 O   0  0  0  0  0  0  0  0  0  0  0  0
    4.6350    0.6828    3.2265 C   0  0  0  0  0  0  0  0  0  0  0  0
    5.3618    0.3336    4.3677 C   0  0  0  0  0  0  0  0  0  0  0  0
    6.7577    0.3482    4.3318 C   0  0  0  0  0  0  0  0  0  0  0  0
    7.4527    0.7221    3.1677 C   0  0  0  0  0  0  0  0  0  0  0  0
    8.8655    0.7335    3.1185 C   0  0  0  0  0  0  0  0  0  0  0  0
    9.5923    1.1027    1.9725 C   0  0  0  0  0  0  0  0  0  0  0  0
   11.0504    1.0893    1.9423 N   0  0  0  0  0  0  0  0  0  0  0  0
   11.6917    1.0499    0.6210 C   0  0  0  0  0  0  0  0  0  0  0  0
   11.8273    1.1705    3.1285 C   0  0  0  0  0  0  0  0  0  0  0  0
   11.3824    1.2605    4.2753 O   0  0  0  0  0  0  0  0  0  0  0  0
   13.3262    1.1171    3.0000 C   0  0  0  0  0  0  0  0  0  0  0  0
   14.1645    1.5427    3.9652 C   0  0  0  0  0  0  0  0  0  0  0  0
   15.4789    1.0208    3.5406 C   0  0  0  0  0  0  0  0  0  0  0  0
   16.4919    1.2601    4.1832 O   0  0  0  0  0  0  0  0  0  0  0  0
   15.2970    0.2934    2.3887 N   0  0  0  0  0  0  0  0  0  0  0  0
   16.2316   -0.3674    1.5768 C   0  0  0  0  0  0  0  0  0  0  0  0
   17.5184   -0.6341    2.0473 C   0  0  0  0  0  0  0  0  0  0  0  0
   18.4345   -1.3280    1.2584 C   0  0  0  0  0  0  0  0  0  0  0  0
   18.0808   -1.7316   -0.0254 C   0  0  0  0  0  0  0  0  0  0  0  0
   16.8121   -1.4457   -0.5235 C   0  0  0  0  0  0  0  0  0  0  0  0
   15.8850   -0.7800    0.2793 C   0  0  0  0  0  0  0  0  0  0  0  0
   13.9823    0.4100    2.0053 N   0  0  0  0  0  0  0  0  0  0  0  0
    8.8295    1.4570    0.8441 C   0  0  0  0  0  0  0  0  0  0  0  0
    7.4228    1.4566    0.8707 C   0  0  0  0  0  0  0  0  0  0  0  0
    6.7217    1.0879    2.0223 C   0  0  0  0  0  0  0  0  0  0  0  0
    5.3151    1.0637    2.0614 C   0  0  0  0  0  0  0  0  0  0  0  0
    0.9262    0.0931    5.4849 H   0  0  0  0  0  0  0  0  0  0  0  0
    0.8439   -0.5855    3.8435 H   0  0  0  0  0  0  0  0  0  0  0  0
    0.8100    1.1971    4.1026 H   0  0  0  0  0  0  0  0  0  0  0  0
    4.8575    0.0417    5.2861 H   0  0  0  0  0  0  0  0  0  0  0  0
    7.3046    0.0646    5.2298 H   0  0  0  0  0  0  0  0  0  0  0  0
    9.3816    0.3998    4.0134 H   0  0  0  0  0  0  0  0  0  0  0  0
   11.0426    0.7401   -0.1943 H   0  0  0  0  0  0  0  0  0  0  0  0
   12.4129    0.2421    0.5935 H   0  0  0  0  0  0  0  0  0  0  0  0
   12.1990    1.9972    0.4117 H   0  0  0  0  0  0  0  0  0  0  0  0
   13.9970    2.0198    4.8969 H   0  0  0  0  0  0  0  0  0  0  0  0
   17.8214   -0.3357    3.0480 H   0  0  0  0  0  0  0  0  0  0  0  0
   19.4202   -1.5573    1.6554 H   0  0  0  0  0  0  0  0  0  0  0  0
   18.7939   -2.2777   -0.6363 H   0  0  0  0  0  0  0  0  0  0  0  0
   16.5400   -1.7471   -1.5311 H   0  0  0  0  0  0  0  0  0  0  0  0
   14.9035   -0.5673   -0.1333 H   0  0  0  0  0  0  0  0  0  0  0  0
   13.5277   -0.4871    1.8632 H   0  0  0  0  0  0  0  0  0  0  0  0
    9.2850    1.7756   -0.0890 H   0  0  0  0  0  0  0  0  0  0  0  0
    6.8789    1.7543   -0.0251 H   0  0  0  0  0  0  0  0  0  0  0  0
    4.7413    1.3351    1.1766 H   0  0  0  0  0  0  0  0  0  0  0  0
  1  2  1  0  0  0  0
  1 31  1  0  0  0  0
  1 32  1  0  0  0  0
  1 33  1  0  0  0  0
  2  3  1  0  0  0  0
  3  4  2  0  0  0  0
  3  5  1  0  0  0  0
  5  6  2  0  0  0  0
  5 30  1  0  0  0  0
  6  7  1  0  0  0  0
  6 34  1  0  0  0  0
  7  8  2  0  0  0  0
  7 35  1  0  0  0  0
  8  9  1  0  0  0  0
  8 29  1  0  0  0  0
  9 10  2  0  0  0  0
  9 36  1  0  0  0  0
 10 11  1  0  0  0  0
 10 27  1  0  0  0  0
 11 12  1  0  0  0  0
 11 13  1  0  0  0  0
 12 37  1  0  0  0  0
 12 38  1  0  0  0  0
 12 39  1  0  0  0  0
 13 14  2  0  0  0  0
 13 15  1  0  0  0  0
 15 16  2  0  0  0  0
 15 26  1  0  0  0  0
 16 17  1  0  0  0  0
 16 40  1  0  0  0  0
 17 18  2  0  0  0  0
 17 19  1  0  0  0  0
 19 20  1  0  0  0  0
 19 26  1  0  0  0  0
 20 21  2  0  0  0  0
 20 25  1  0  0  0  0
 21 22  1  0  0  0  0
 21 41  1  0  0  0  0
 22 23  2  0  0  0  0
 22 42  1  0  0  0  0
 23 24  1  0  0  0  0
 23 43  1  0  0  0  0
 24 25  2  0  0  0  0
 24 44  1  0  0  0  0
 25 45  1  0  0  0  0
 26 46  1  0  0  0  0
 27 28  2  0  0  0  0
 27 47  1  0  0  0  0
 28 29  1  0  0  0  0
 28 48  1  0  0  0  0
 29 30  2  0  0  0  0
 30 49  1  0  0  0  0
M  END
$$$$
