
 OpenBabel01122422403D

 42 45  0  0  0  0  0  0  0  0999 V2000
    2.7137   -0.8912    1.5703 O   0  0  0  0  0  0  0  0  0  0  0  0
    2.1854   -0.8533    0.4825 C   0  0  0  0  0  0  0  0  0  0  0  0
    2.8366   -0.9104   -0.7161 O   0  0  0  0  0  0  0  0  0  0  0  0
    4.2869   -1.0524   -0.6858 C   0  0  0  0  0  0  0  0  0  0  0  0
    4.7216   -2.2974   -1.3792 C   0  0  0  0  0  0  0  0  0  0  0  0
    4.0985   -2.9716   -2.4023 C   0  0  0  0  0  0  0  0  0  0  0  0
    4.8942   -4.0041   -2.7778 O   0  0  0  0  0  0  0  0  0  0  0  0
    5.9720   -3.9220   -1.9361 C   0  0  0  0  0  0  0  0  0  0  0  0
    7.0150   -4.9169   -2.1301 C   0  0  0  0  0  0  0  0  0  0  0  0
    8.1548   -4.9100   -1.3118 C   0  0  0  0  0  0  0  0  0  0  0  0
    9.1653   -5.8715   -1.4769 C   0  0  0  0  0  0  0  0  0  0  0  0
   10.3672   -5.8903   -0.5655 C   0  0  0  0  0  0  0  0  0  0  0  0
   10.3405   -4.9032    0.3721 F   0  0  0  0  0  0  0  0  0  0  0  0
   10.4769   -7.0583    0.1273 F   0  0  0  0  0  0  0  0  0  0  0  0
   11.5438   -5.7400   -1.2309 F   0  0  0  0  0  0  0  0  0  0  0  0
    9.0305   -6.8295   -2.4923 C   0  0  0  0  0  0  0  0  0  0  0  0
    7.9066   -6.8379   -3.3171 C   0  0  0  0  0  0  0  0  0  0  0  0
    6.9020   -5.8895   -3.1314 C   0  0  0  0  0  0  0  0  0  0  0  0
    5.9050   -2.9346   -1.0657 N   0  0  0  0  0  0  0  0  0  0  0  0
    0.7027   -0.6958    0.3818 C   0  0  0  0  0  0  0  0  0  0  0  0
   -0.0249   -0.5746    1.5657 C   0  0  0  0  0  0  0  0  0  0  0  0
   -1.3701   -0.3613    1.5931 N   0  0  0  0  0  0  0  0  0  0  0  0
   -1.9742   -0.3440    0.3711 C   0  0  0  0  0  0  0  0  0  0  0  0
   -3.3732   -0.1335    0.2876 N   0  0  0  0  0  0  0  0  0  0  0  0
   -4.2279    0.1038    1.3403 C   0  0  0  0  0  0  0  0  0  0  0  0
   -5.4860    0.2407    0.8091 C   0  0  0  0  0  0  0  0  0  0  0  0
   -5.3115    0.0394   -0.5688 C   0  0  0  0  0  0  0  0  0  0  0  0
   -4.0304   -0.1212   -0.9032 N   0  0  0  0  0  0  0  0  0  0  0  0
   -1.2558   -0.5101   -0.8088 C   0  0  0  0  0  0  0  0  0  0  0  0
    0.0982   -0.6618   -0.8371 N   0  0  0  0  0  0  0  0  0  0  0  0
    4.6981   -1.0456    0.3375 H   0  0  0  0  0  0  0  0  0  0  0  0
    4.7272   -0.1998   -1.2259 H   0  0  0  0  0  0  0  0  0  0  0  0
    3.1781   -2.8507   -2.9521 H   0  0  0  0  0  0  0  0  0  0  0  0
    8.2470   -4.1481   -0.5355 H   0  0  0  0  0  0  0  0  0  0  0  0
    9.8053   -7.5799   -2.6420 H   0  0  0  0  0  0  0  0  0  0  0  0
    7.8092   -7.5809   -4.1040 H   0  0  0  0  0  0  0  0  0  0  0  0
    6.0276   -5.9084   -3.7784 H   0  0  0  0  0  0  0  0  0  0  0  0
    0.4490   -0.6633    2.5420 H   0  0  0  0  0  0  0  0  0  0  0  0
   -3.8526    0.1727    2.3528 H   0  0  0  0  0  0  0  0  0  0  0  0
   -6.4004    0.4572    1.3416 H   0  0  0  0  0  0  0  0  0  0  0  0
   -6.0616    0.0180   -1.3488 H   0  0  0  0  0  0  0  0  0  0  0  0
   -1.7404   -0.5066   -1.7819 H   0  0  0  0  0  0  0  0  0  0  0  0
  1  2  2  0  0  0  0
  2  3  1  0  0  0  0
  2 20  1  0  0  0  0
  3  4  1  0  0  0  0
  4  5  1  0  0  0  0
  4 31  1  0  0  0  0
  4 32  1  0  0  0  0
  5  6  2  0  0  0  0
  5 19  1  0  0  0  0
  6  7  1  0  0  0  0
  6 33  1  0  0  0  0
  7  8  1  0  0  0  0
  8  9  1  0  0  0  0
  8 19  2  0  0  0  0
  9 10  2  0  0  0  0
  9 18  1  0  0  0  0
 10 11  1  0  0  0  0
 10 34  1  0  0  0  0
 11 12  1  0  0  0  0
 11 16  2  0  0  0  0
 12 13  1  0  0  0  0
 12 14  1  0  0  0  0
 12 15  1  0  0  0  0
 16 17  1  0  0  0  0
 16 35  1  0  0  0  0
 17 18  2  0  0  0  0
 17 36  1  0  0  0  0
 18 37  1  0  0  0  0
 20 21  2  0  0  0  0
 20 30  1  0  0  0  0
 21 22  1  0  0  0  0
 21 38  1  0  0  0  0
 22 23  2  0  0  0  0
 23 24  1  0  0  0  0
 23 29  1  0  0  0  0
 24 25  1  0  0  0  0
 24 28  1  0  0  0  0
 25 26  2  0  0  0  0
 25 39  1  0  0  0  0
 26 27  1  0  0  0  0
 26 40  1  0  0  0  0
 27 28  2  0  0  0  0
 27 41  1  0  0  0  0
 29 30  2  0  0  0  0
 29 42  1  0  0  0  0
M  END
$$$$
