
 OpenBabel01122422353D

 49 52  0  0  0  0  0  0  0  0999 V2000
    1.0247   -0.5912   -0.2045 O   0  0  0  0  0  0  0  0  0  0  0  0
    2.2418   -0.4366   -0.1261 C   0  0  0  0  0  0  0  0  0  0  0  0
    2.9843    0.6228   -0.9267 C   0  0  0  0  0  0  0  0  0  0  0  0
    3.2938    0.2188   -2.3481 C   0  0  0  0  0  0  0  0  0  0  0  0
    2.3281    0.4860   -3.3405 C   0  0  0  0  0  0  0  0  0  0  0  0
    2.5817    0.2102   -4.6839 C   0  0  0  0  0  0  0  0  0  0  0  0
    3.7751   -0.3961   -5.0527 C   0  0  0  0  0  0  0  0  0  0  0  0
    4.7100   -0.7321   -4.0742 C   0  0  0  0  0  0  0  0  0  0  0  0
    4.5061   -0.3827   -2.7277 C   0  0  0  0  0  0  0  0  0  0  0  0
    5.4574   -0.6190   -1.7476 O   0  0  0  0  0  0  0  0  0  0  0  0
    6.7752   -0.7096   -2.1410 C   0  0  0  0  0  0  0  0  0  0  0  0
    7.3768    0.2377   -2.9754 C   0  0  0  0  0  0  0  0  0  0  0  0
    8.6632   -0.0064   -3.4202 C   0  0  0  0  0  0  0  0  0  0  0  0
    9.3943   -1.0722   -3.0315 N   0  0  0  0  0  0  0  0  0  0  0  0
    8.8180   -1.9290   -2.1638 C   0  0  0  0  0  0  0  0  0  0  0  0
    7.5236   -1.7918   -1.6865 C   0  0  0  0  0  0  0  0  0  0  0  0
    3.0554   -1.1624    0.7184 N   0  0  0  0  0  0  0  0  0  0  0  0
    2.5317   -2.1237    1.6614 C   0  0  0  0  0  0  0  0  0  0  0  0
    2.9476   -1.7852    3.0726 C   0  0  0  0  0  0  0  0  0  0  0  0
    2.5510   -0.5741    3.6589 C   0  0  0  0  0  0  0  0  0  0  0  0
    2.8781   -0.2845    4.9870 C   0  0  0  0  0  0  0  0  0  0  0  0
    3.6156   -1.1909    5.7598 C   0  0  0  0  0  0  0  0  0  0  0  0
    3.9124   -0.8699    7.1574 C   0  0  0  0  0  0  0  0  0  0  0  0
    3.1803   -0.1164    7.9577 N   0  0  0  0  0  0  0  0  0  0  0  0
    3.8276   -0.0897    9.1655 C   0  0  0  0  0  0  0  0  0  0  0  0
    4.9933   -0.8112    9.1030 C   0  0  0  0  0  0  0  0  0  0  0  0
    5.0351   -1.3016    7.8276 N   0  0  0  0  0  0  0  0  0  0  0  0
    4.0204   -2.3943    5.1683 C   0  0  0  0  0  0  0  0  0  0  0  0
    3.6900   -2.6908    3.8403 C   0  0  0  0  0  0  0  0  0  0  0  0
    3.8950    0.9307   -0.4036 H   0  0  0  0  0  0  0  0  0  0  0  0
    2.3475    1.5195   -0.9300 H   0  0  0  0  0  0  0  0  0  0  0  0
    1.3715    0.9311   -3.0681 H   0  0  0  0  0  0  0  0  0  0  0  0
    1.8437    0.4629   -5.4406 H   0  0  0  0  0  0  0  0  0  0  0  0
    3.9825   -0.6112   -6.0971 H   0  0  0  0  0  0  0  0  0  0  0  0
    5.6126   -1.2453   -4.3947 H   0  0  0  0  0  0  0  0  0  0  0  0
    6.8355    1.1108   -3.3232 H   0  0  0  0  0  0  0  0  0  0  0  0
    9.1446    0.6572   -4.1298 H   0  0  0  0  0  0  0  0  0  0  0  0
    9.4417   -2.7656   -1.8579 H   0  0  0  0  0  0  0  0  0  0  0  0
    7.1028   -2.5252   -1.0092 H   0  0  0  0  0  0  0  0  0  0  0  0
    4.0554   -1.0438    0.6651 H   0  0  0  0  0  0  0  0  0  0  0  0
    2.9303   -3.0992    1.3652 H   0  0  0  0  0  0  0  0  0  0  0  0
    1.4390   -2.1840    1.6087 H   0  0  0  0  0  0  0  0  0  0  0  0
    1.9597    0.1435    3.0896 H   0  0  0  0  0  0  0  0  0  0  0  0
    2.5425    0.6528    5.4280 H   0  0  0  0  0  0  0  0  0  0  0  0
    3.4236    0.4537   10.0095 H   0  0  0  0  0  0  0  0  0  0  0  0
    5.7696   -1.0095    9.8271 H   0  0  0  0  0  0  0  0  0  0  0  0
    5.7725   -1.8605    7.4265 H   0  0  0  0  0  0  0  0  0  0  0  0
    4.5638   -3.1428    5.7465 H   0  0  0  0  0  0  0  0  0  0  0  0
    3.9946   -3.6443    3.4225 H   0  0  0  0  0  0  0  0  0  0  0  0
  1  2  2  0  0  0  0
  2  3  1  0  0  0  0
  2 17  1  0  0  0  0
  3  4  1  0  0  0  0
  3 30  1  0  0  0  0
  3 31  1  0  0  0  0
  4  5  2  0  0  0  0
  4  9  1  0  0  0  0
  5  6  1  0  0  0  0
  5 32  1  0  0  0  0
  6  7  2  0  0  0  0
  6 33  1  0  0  0  0
  7  8  1  0  0  0  0
  7 34  1  0  0  0  0
  8  9  2  0  0  0  0
  8 35  1  0  0  0  0
  9 10  1  0  0  0  0
 10 11  1  0  0  0  0
 11 12  2  0  0  0  0
 11 16  1  0  0  0  0
 12 13  1  0  0  0  0
 12 36  1  0  0  0  0
 13 14  2  0  0  0  0
 13 37  1  0  0  0  0
 14 15  1  0  0  0  0
 15 16  2  0  0  0  0
 15 38  1  0  0  0  0
 16 39  1  0  0  0  0
 17 18  1  0  0  0  0
 17 40  1  0  0  0  0
 18 19  1  0  0  0  0
 18 41  1  0  0  0  0
 18 42  1  0  0  0  0
 19 20  2  0  0  0  0
 19 29  1  0  0  0  0
 20 21  1  0  0  0  0
 20 43  1  0  0  0  0
 21 22  2  0  0  0  0
 21 44  1  0  0  0  0
 22 23  1  0  0  0  0
 22 28  1  0  0  0  0
 23 24  2  0  0  0  0
 23 27  1  0  0  0  0
 24 25  1  0  0  0  0
 25 26  2  0  0  0  0
 25 45  1  0  0  0  0
 26 27  1  0  0  0  0
 26 46  1  0  0  0  0
 27 47  1  0  0  0  0
 28 29  2  0  0  0  0
 28 48  1  0  0  0  0
 29 49  1  0  0  0  0
M  END
$$$$
