
 OpenBabel01122422403D

 50 53  0  0  0  0  0  0  0  0999 V2000
    1.0892    0.2507    0.1823 O   0  0  0  0  0  0  0  0  0  0  0  0
    2.2953    0.0569    0.0471 C   0  0  0  0  0  0  0  0  0  0  0  0
    2.8881   -1.1388    0.3313 N   0  0  0  0  0  0  0  0  0  0  0  0
    2.1635   -2.2733    0.8746 C   0  0  0  0  0  0  0  0  0  0  0  0
    3.1044   -3.4267    1.2438 C   0  0  0  0  0  0  0  0  0  0  0  0
    2.3814   -4.5622    1.8473 N   0  0  0  0  0  0  0  0  0  0  0  0
    2.2419   -4.6732    3.2255 C   0  0  0  0  0  0  0  0  0  0  0  0
    1.6217   -5.6892    3.8416 C   0  0  0  0  0  0  0  0  0  0  0  0
    1.0403   -6.7616    2.9999 C   0  0  0  0  0  0  0  0  0  0  0  0
    0.4736   -7.7267    3.5017 O   0  0  0  0  0  0  0  0  0  0  0  0
    1.1711   -6.6246    1.5300 C   0  0  0  0  0  0  0  0  0  0  0  0
    1.8197   -5.5555    1.0534 C   0  0  0  0  0  0  0  0  0  0  0  0
    3.1201    1.0839   -0.3058 N   0  0  0  0  0  0  0  0  0  0  0  0
    4.4657    0.9690   -0.4737 C   0  0  0  0  0  0  0  0  0  0  0  0
    5.1735   -0.1281   -0.6363 N   0  0  0  0  0  0  0  0  0  0  0  0
    6.4639    0.3300   -0.7634 C   0  0  0  0  0  0  0  0  0  0  0  0
    7.5799   -0.5534   -1.0553 C   0  0  0  0  0  0  0  0  0  0  0  0
    8.6702   -0.1301   -1.8297 C   0  0  0  0  0  0  0  0  0  0  0  0
    9.7851   -0.9525   -2.0030 C   0  0  0  0  0  0  0  0  0  0  0  0
    9.7878   -2.2353   -1.4665 C   0  0  0  0  0  0  0  0  0  0  0  0
    8.6782   -2.6968   -0.7594 C   0  0  0  0  0  0  0  0  0  0  0  0
    7.5783   -1.8580   -0.5516 C   0  0  0  0  0  0  0  0  0  0  0  0
    6.5011    1.6980   -0.5406 C   0  0  0  0  0  0  0  0  0  0  0  0
    7.5489    2.7073   -0.4104 C   0  0  0  0  0  0  0  0  0  0  0  0
    7.3620    4.0216   -0.8512 C   0  0  0  0  0  0  0  0  0  0  0  0
    8.4400    4.9137   -0.8965 C   0  0  0  0  0  0  0  0  0  0  0  0
    9.7132    4.5020   -0.5034 C   0  0  0  0  0  0  0  0  0  0  0  0
    9.8986    3.2225    0.0050 C   0  0  0  0  0  0  0  0  0  0  0  0
    8.8146    2.3483    0.0860 C   0  0  0  0  0  0  0  0  0  0  0  0
    5.1947    2.1230   -0.4399 O   0  0  0  0  0  0  0  0  0  0  0  0
    3.8142   -1.2800   -0.0676 H   0  0  0  0  0  0  0  0  0  0  0  0
    1.4224   -2.5901    0.1330 H   0  0  0  0  0  0  0  0  0  0  0  0
    1.6154   -1.9273    1.7590 H   0  0  0  0  0  0  0  0  0  0  0  0
    3.8796   -3.0661    1.9332 H   0  0  0  0  0  0  0  0  0  0  0  0
    3.6439   -3.7622    0.3478 H   0  0  0  0  0  0  0  0  0  0  0  0
    2.6864   -3.8661    3.8009 H   0  0  0  0  0  0  0  0  0  0  0  0
    1.5238   -5.7738    4.9132 H   0  0  0  0  0  0  0  0  0  0  0  0
    0.7375   -7.3930    0.9075 H   0  0  0  0  0  0  0  0  0  0  0  0
    1.9437   -5.4130   -0.0165 H   0  0  0  0  0  0  0  0  0  0  0  0
    2.7096    2.0031   -0.3395 H   0  0  0  0  0  0  0  0  0  0  0  0
    8.6870    0.8604   -2.2801 H   0  0  0  0  0  0  0  0  0  0  0  0
   10.6465   -0.5854   -2.5538 H   0  0  0  0  0  0  0  0  0  0  0  0
   10.6535   -2.8791   -1.6027 H   0  0  0  0  0  0  0  0  0  0  0  0
    8.6744   -3.7078   -0.3569 H   0  0  0  0  0  0  0  0  0  0  0  0
    6.7292   -2.2284    0.0171 H   0  0  0  0  0  0  0  0  0  0  0  0
    6.3866    4.3556   -1.1971 H   0  0  0  0  0  0  0  0  0  0  0  0
    8.2913    5.9249   -1.2665 H   0  0  0  0  0  0  0  0  0  0  0  0
   10.5596    5.1785   -0.5898 H   0  0  0  0  0  0  0  0  0  0  0  0
   10.8854    2.8909    0.3189 H   0  0  0  0  0  0  0  0  0  0  0  0
    8.9886    1.3573    0.5014 H   0  0  0  0  0  0  0  0  0  0  0  0
  1  2  2  0  0  0  0
  2  3  1  0  0  0  0
  2 13  1  0  0  0  0
  3  4  1  0  0  0  0
  3 31  1  0  0  0  0
  4  5  1  0  0  0  0
  4 32  1  0  0  0  0
  4 33  1  0  0  0  0
  5  6  1  0  0  0  0
  5 34  1  0  0  0  0
  5 35  1  0  0  0  0
  6  7  1  0  0  0  0
  6 12  1  0  0  0  0
  7  8  2  0  0  0  0
  7 36  1  0  0  0  0
  8  9  1  0  0  0  0
  8 37  1  0  0  0  0
  9 10  2  0  0  0  0
  9 11  1  0  0  0  0
 11 12  2  0  0  0  0
 11 38  1  0  0  0  0
 12 39  1  0  0  0  0
 13 14  1  0  0  0  0
 13 40  1  0  0  0  0
 14 15  2  0  0  0  0
 14 30  1  0  0  0  0
 15 16  1  0  0  0  0
 16 17  1  0  0  0  0
 16 23  2  0  0  0  0
 17 18  2  0  0  0  0
 17 22  1  0  0  0  0
 18 19  1  0  0  0  0
 18 41  1  0  0  0  0
 19 20  2  0  0  0  0
 19 42  1  0  0  0  0
 20 21  1  0  0  0  0
 20 43  1  0  0  0  0
 21 22  2  0  0  0  0
 21 44  1  0  0  0  0
 22 45  1  0  0  0  0
 23 24  1  0  0  0  0
 23 30  1  0  0  0  0
 24 25  2  0  0  0  0
 24 29  1  0  0  0  0
 25 26  1  0  0  0  0
 25 46  1  0  0  0  0
 26 27  2  0  0  0  0
 26 47  1  0  0  0  0
 27 28  1  0  0  0  0
 27 48  1  0  0  0  0
 28 29  2  0  0  0  0
 28 49  1  0  0  0  0
 29 50  1  0  0  0  0
M  END
$$$$
