
 OpenBabel01122422403D

 41 44  0  0  0  0  0  0  0  0999 V2000
    2.1134    0.0712   -0.8670 C   0  0  0  0  0  0  0  0  0  0  0  0
    0.7780   -0.2312   -0.3181 C   0  0  0  0  0  0  0  0  0  0  0  0
    0.0337   -1.3675   -0.0761 C   0  0  0  0  0  0  0  0  0  0  0  0
    0.3726   -2.7500   -0.3529 C   0  0  0  0  0  0  0  0  0  0  0  0
   -0.4745   -3.4862   -0.8435 O   0  0  0  0  0  0  0  0  0  0  0  0
    1.6340   -3.1310    0.0456 N   0  0  0  0  0  0  0  0  0  0  0  0
    2.0481   -4.4370    0.0266 C   0  0  0  0  0  0  0  0  0  0  0  0
    1.3851   -5.4647   -0.4880 N   0  0  0  0  0  0  0  0  0  0  0  0
    2.1116   -6.5290   -0.1104 N   0  0  0  0  0  0  0  0  0  0  0  0
    1.6415   -7.8470   -0.3404 C   0  0  0  0  0  0  0  0  0  0  0  0
    2.3314   -8.9670    0.1470 C   0  0  0  0  0  0  0  0  0  0  0  0
    1.8006  -10.2487   -0.0509 C   0  0  0  0  0  0  0  0  0  0  0  0
    0.5988  -10.4073   -0.7356 C   0  0  0  0  0  0  0  0  0  0  0  0
    0.0993  -11.6383   -0.9078 F   0  0  0  0  0  0  0  0  0  0  0  0
   -0.0783   -9.3019   -1.2305 C   0  0  0  0  0  0  0  0  0  0  0  0
   -1.2335   -9.4587   -1.8908 F   0  0  0  0  0  0  0  0  0  0  0  0
    0.4313   -8.0225   -1.0378 C   0  0  0  0  0  0  0  0  0  0  0  0
    3.2426   -6.0864    0.5304 C   0  0  0  0  0  0  0  0  0  0  0  0
    3.2261   -4.7720    0.6272 N   0  0  0  0  0  0  0  0  0  0  0  0
   -1.2161   -0.8700    0.4267 C   0  0  0  0  0  0  0  0  0  0  0  0
   -2.3931   -1.6144    0.8916 C   0  0  0  0  0  0  0  0  0  0  0  0
   -2.2536   -2.8244    1.5922 C   0  0  0  0  0  0  0  0  0  0  0  0
   -3.3759   -3.5468    2.0021 C   0  0  0  0  0  0  0  0  0  0  0  0
   -4.6476   -3.0514    1.7319 C   0  0  0  0  0  0  0  0  0  0  0  0
   -5.7208   -3.7505    2.1174 F   0  0  0  0  0  0  0  0  0  0  0  0
   -4.8097   -1.8430    1.0682 C   0  0  0  0  0  0  0  0  0  0  0  0
   -3.6872   -1.1230    0.6510 C   0  0  0  0  0  0  0  0  0  0  0  0
   -1.2037    0.4724    0.4509 N   0  0  0  0  0  0  0  0  0  0  0  0
    0.0315    0.8609   -0.0085 O   0  0  0  0  0  0  0  0  0  0  0  0
    2.6974   -0.8320   -1.0583 H   0  0  0  0  0  0  0  0  0  0  0  0
    2.6755    0.6951   -0.1640 H   0  0  0  0  0  0  0  0  0  0  0  0
    2.0223    0.6195   -1.8100 H   0  0  0  0  0  0  0  0  0  0  0  0
    2.2543   -2.5009    0.5272 H   0  0  0  0  0  0  0  0  0  0  0  0
    3.2644   -8.8818    0.6969 H   0  0  0  0  0  0  0  0  0  0  0  0
    2.3108  -11.1270    0.3339 H   0  0  0  0  0  0  0  0  0  0  0  0
   -0.1341   -7.1778   -1.4294 H   0  0  0  0  0  0  0  0  0  0  0  0
    4.0125   -6.7407    0.9116 H   0  0  0  0  0  0  0  0  0  0  0  0
   -1.2729   -3.2312    1.8214 H   0  0  0  0  0  0  0  0  0  0  0  0
   -3.2660   -4.4946    2.5181 H   0  0  0  0  0  0  0  0  0  0  0  0
   -5.8122   -1.4711    0.8756 H   0  0  0  0  0  0  0  0  0  0  0  0
   -3.8299   -0.1804    0.1252 H   0  0  0  0  0  0  0  0  0  0  0  0
  1  2  1  0  0  0  0
  1 30  1  0  0  0  0
  1 31  1  0  0  0  0
  1 32  1  0  0  0  0
  2  3  2  0  0  0  0
  2 29  1  0  0  0  0
  3  4  1  0  0  0  0
  3 20  1  0  0  0  0
  4  5  2  0  0  0  0
  4  6  1  0  0  0  0
  6  7  1  0  0  0  0
  6 33  1  0  0  0  0
  7  8  2  0  0  0  0
  7 19  1  0  0  0  0
  8  9  1  0  0  0  0
  9 10  1  0  0  0  0
  9 18  1  0  0  0  0
 10 11  2  0  0  0  0
 10 17  1  0  0  0  0
 11 12  1  0  0  0  0
 11 34  1  0  0  0  0
 12 13  2  0  0  0  0
 12 35  1  0  0  0  0
 13 14  1  0  0  0  0
 13 15  1  0  0  0  0
 15 16  1  0  0  0  0
 15 17  2  0  0  0  0
 17 36  1  0  0  0  0
 18 19  2  0  0  0  0
 18 37  1  0  0  0  0
 20 21  1  0  0  0  0
 20 28  2  0  0  0  0
 21 22  2  0  0  0  0
 21 27  1  0  0  0  0
 22 23  1  0  0  0  0
 22 38  1  0  0  0  0
 23 24  2  0  0  0  0
 23 39  1  0  0  0  0
 24 25  1  0  0  0  0
 24 26  1  0  0  0  0
 26 27  2  0  0  0  0
 26 40  1  0  0  0  0
 27 41  1  0  0  0  0
 28 29  1  0  0  0  0
M  END
$$$$
