
 OpenBabel01122422413D

 52 55  0  0  0  0  0  0  0  0999 V2000
    3.2068    0.4214   -1.3237 C   0  0  0  0  0  0  0  0  0  0  0  0
    2.5054    0.0398   -0.0286 C   0  0  0  0  0  0  0  0  0  0  0  0
    3.0582   -1.2203    0.5672 C   0  0  0  0  0  0  0  0  0  0  0  0
    4.0678   -1.4485    1.4977 C   0  0  0  0  0  0  0  0  0  0  0  0
    4.8723   -0.4360    2.1788 C   0  0  0  0  0  0  0  0  0  0  0  0
    4.4238    0.6674    2.4674 O   0  0  0  0  0  0  0  0  0  0  0  0
    6.1814   -0.8390    2.3995 N   0  0  0  0  0  0  0  0  0  0  0  0
    7.1352   -0.1159    3.0807 C   0  0  0  0  0  0  0  0  0  0  0  0
    6.8940    0.8149    4.0028 C   0  0  0  0  0  0  0  0  0  0  0  0
    7.9783    1.5734    4.6575 C   0  0  0  0  0  0  0  0  0  0  0  0
    7.6350    2.4009    5.5002 O   0  0  0  0  0  0  0  0  0  0  0  0
    9.2772    1.3033    4.2095 N   0  0  0  0  0  0  0  0  0  0  0  0
   10.4214    2.0377    4.6692 C   0  0  0  0  0  0  0  0  0  0  0  0
   10.4256    2.7036    5.9043 C   0  0  0  0  0  0  0  0  0  0  0  0
   11.5174    3.4745    6.3127 C   0  0  0  0  0  0  0  0  0  0  0  0
   12.6297    3.5987    5.4885 C   0  0  0  0  0  0  0  0  0  0  0  0
   12.6606    2.9277    4.2692 C   0  0  0  0  0  0  0  0  0  0  0  0
   11.5734    2.1394    3.8710 C   0  0  0  0  0  0  0  0  0  0  0  0
    9.5636    0.3147    3.2797 N   0  0  0  0  0  0  0  0  0  0  0  0
    8.5665   -0.3532    2.7995 C   0  0  0  0  0  0  0  0  0  0  0  0
    4.1276   -2.8624    1.6837 C   0  0  0  0  0  0  0  0  0  0  0  0
    3.1715   -3.4465    0.8816 C   0  0  0  0  0  0  0  0  0  0  0  0
    2.7844   -4.8794    0.7143 C   0  0  0  0  0  0  0  0  0  0  0  0
    3.5986   -5.5629   -0.3545 C   0  0  0  0  0  0  0  0  0  0  0  0
    4.8202   -6.1724   -0.0339 C   0  0  0  0  0  0  0  0  0  0  0  0
    5.6047   -6.7500   -1.0323 C   0  0  0  0  0  0  0  0  0  0  0  0
    5.1778   -6.7213   -2.3585 C   0  0  0  0  0  0  0  0  0  0  0  0
    3.9611   -6.1259   -2.6872 C   0  0  0  0  0  0  0  0  0  0  0  0
    3.1752   -5.5463   -1.6911 C   0  0  0  0  0  0  0  0  0  0  0  0
    2.5516   -2.4411    0.1872 N   0  0  0  0  0  0  0  0  0  0  0  0
    2.6918    1.2640   -1.7981 H   0  0  0  0  0  0  0  0  0  0  0  0
    3.2176   -0.4101   -2.0367 H   0  0  0  0  0  0  0  0  0  0  0  0
    4.2437    0.7206   -1.1384 H   0  0  0  0  0  0  0  0  0  0  0  0
    1.4365   -0.0995   -0.2338 H   0  0  0  0  0  0  0  0  0  0  0  0
    2.5734    0.8681    0.6841 H   0  0  0  0  0  0  0  0  0  0  0  0
    6.4864   -1.6419    1.8617 H   0  0  0  0  0  0  0  0  0  0  0  0
    5.8962    1.0813    4.3305 H   0  0  0  0  0  0  0  0  0  0  0  0
    9.5898    2.6207    6.5929 H   0  0  0  0  0  0  0  0  0  0  0  0
   11.4865    3.9801    7.2744 H   0  0  0  0  0  0  0  0  0  0  0  0
   13.4677    4.2175    5.7972 H   0  0  0  0  0  0  0  0  0  0  0  0
   13.5250    3.0286    3.6180 H   0  0  0  0  0  0  0  0  0  0  0  0
   11.6173    1.6493    2.9019 H   0  0  0  0  0  0  0  0  0  0  0  0
    8.7842   -1.1626    2.0824 H   0  0  0  0  0  0  0  0  0  0  0  0
    4.7761   -3.3977    2.3660 H   0  0  0  0  0  0  0  0  0  0  0  0
    1.7163   -4.9595    0.4782 H   0  0  0  0  0  0  0  0  0  0  0  0
    2.9115   -5.4080    1.6689 H   0  0  0  0  0  0  0  0  0  0  0  0
    5.1703   -6.1900    0.9957 H   0  0  0  0  0  0  0  0  0  0  0  0
    6.5525   -7.2166   -0.7776 H   0  0  0  0  0  0  0  0  0  0  0  0
    5.7925   -7.1645   -3.1375 H   0  0  0  0  0  0  0  0  0  0  0  0
    3.6286   -6.1054   -3.7215 H   0  0  0  0  0  0  0  0  0  0  0  0
    2.2338   -5.0774   -1.9642 H   0  0  0  0  0  0  0  0  0  0  0  0
    1.8163   -2.5727   -0.4950 H   0  0  0  0  0  0  0  0  0  0  0  0
  1  2  1  0  0  0  0
  1 31  1  0  0  0  0
  1 32  1  0  0  0  0
  1 33  1  0  0  0  0
  2  3  1  0  0  0  0
  2 34  1  0  0  0  0
  2 35  1  0  0  0  0
  3  4  2  0  0  0  0
  3 30  1  0  0  0  0
  4  5  1  0  0  0  0
  4 21  1  0  0  0  0
  5  6  2  0  0  0  0
  5  7  1  0  0  0  0
  7  8  1  0  0  0  0
  7 36  1  0  0  0  0
  8  9  2  0  0  0  0
  8 20  1  0  0  0  0
  9 10  1  0  0  0  0
  9 37  1  0  0  0  0
 10 11  2  0  0  0  0
 10 12  1  0  0  0  0
 12 13  1  0  0  0  0
 12 19  1  0  0  0  0
 13 14  2  0  0  0  0
 13 18  1  0  0  0  0
 14 15  1  0  0  0  0
 14 38  1  0  0  0  0
 15 16  2  0  0  0  0
 15 39  1  0  0  0  0
 16 17  1  0  0  0  0
 16 40  1  0  0  0  0
 17 18  2  0  0  0  0
 17 41  1  0  0  0  0
 18 42  1  0  0  0  0
 19 20  2  0  0  0  0
 20 43  1  0  0  0  0
 21 22  2  0  0  0  0
 21 44  1  0  0  0  0
 22 23  1  0  0  0  0
 22 30  1  0  0  0  0
 23 24  1  0  0  0  0
 23 45  1  0  0  0  0
 23 46  1  0  0  0  0
 24 25  2  0  0  0  0
 24 29  1  0  0  0  0
 25 26  1  0  0  0  0
 25 47  1  0  0  0  0
 26 27  2  0  0  0  0
 26 48  1  0  0  0  0
 27 28  1  0  0  0  0
 27 49  1  0  0  0  0
 28 29  2  0  0  0  0
 28 50  1  0  0  0  0
 29 51  1  0  0  0  0
 30 52  1  0  0  0  0
M  END
$$$$
