
 OpenBabel01122422413D

 52 55  0  0  0  0  0  0  0  0999 V2000
    5.3584   -0.0403   -6.1884 C   0  0  0  0  0  0  0  0  0  0  0  0
    6.1453   -0.3620   -5.0132 N   0  0  0  0  0  0  0  0  0  0  0  0
    6.6989   -1.7013   -4.8997 C   0  0  0  0  0  0  0  0  0  0  0  0
    6.2435    0.6094   -4.0119 C   0  0  0  0  0  0  0  0  0  0  0  0
    5.6268    1.6772   -4.0831 O   0  0  0  0  0  0  0  0  0  0  0  0
    7.1054    0.3706   -2.8081 C   0  0  0  0  0  0  0  0  0  0  0  0
    6.7520    0.9873   -1.6186 C   0  0  0  0  0  0  0  0  0  0  0  0
    7.6370    0.9010   -0.5469 C   0  0  0  0  0  0  0  0  0  0  0  0
    7.4503    1.5465    0.6553 O   0  0  0  0  0  0  0  0  0  0  0  0
    6.8756    2.7986    0.6535 C   0  0  0  0  0  0  0  0  0  0  0  0
    6.1165    3.1297    1.7700 C   0  0  0  0  0  0  0  0  0  0  0  0
    5.4373    4.3516    1.8168 C   0  0  0  0  0  0  0  0  0  0  0  0
    5.5064    5.2592    0.7535 C   0  0  0  0  0  0  0  0  0  0  0  0
    4.7853    6.4789    0.7042 N   0  0  0  0  0  0  0  0  0  0  0  0
    3.9094    6.9354    1.6710 C   0  0  0  0  0  0  0  0  0  0  0  0
    3.6387    6.3661    2.7252 O   0  0  0  0  0  0  0  0  0  0  0  0
    3.2418    8.2424    1.4353 C   0  0  0  0  0  0  0  0  0  0  0  0
    2.9259    8.7336    0.1726 C   0  0  0  0  0  0  0  0  0  0  0  0
    2.2293    9.9296    0.1099 C   0  0  0  0  0  0  0  0  0  0  0  0
    1.8555   10.6496    1.1908 N   0  0  0  0  0  0  0  0  0  0  0  0
    2.1743   10.1530    2.4134 C   0  0  0  0  0  0  0  0  0  0  0  0
    1.7703   10.9424    3.5860 C   0  0  0  0  0  0  0  0  0  0  0  0
    2.0232   10.5444    4.8484 N   0  0  0  0  0  0  0  0  0  0  0  0
    1.5142   11.5152    5.6207 N   0  0  0  0  0  0  0  0  0  0  0  0
    0.9492   12.5332    4.9154 C   0  0  0  0  0  0  0  0  0  0  0  0
    1.0888   12.1890    3.5921 C   0  0  0  0  0  0  0  0  0  0  0  0
    2.8557    8.9610    2.5702 C   0  0  0  0  0  0  0  0  0  0  0  0
    6.3296    4.9472   -0.3328 C   0  0  0  0  0  0  0  0  0  0  0  0
    7.0325    3.7380   -0.3685 C   0  0  0  0  0  0  0  0  0  0  0  0
    8.7762    0.1124   -0.6552 C   0  0  0  0  0  0  0  0  0  0  0  0
    9.0311   -0.4965   -1.8699 C   0  0  0  0  0  0  0  0  0  0  0  0
    8.2377   -0.3675   -2.9547 N   0  0  0  0  0  0  0  0  0  0  0  0
    5.4040   -0.8437   -6.9278 H   0  0  0  0  0  0  0  0  0  0  0  0
    5.7372    0.8832   -6.6371 H   0  0  0  0  0  0  0  0  0  0  0  0
    4.3193    0.1171   -5.8827 H   0  0  0  0  0  0  0  0  0  0  0  0
    6.2185   -2.3783   -5.6106 H   0  0  0  0  0  0  0  0  0  0  0  0
    6.5295   -2.0893   -3.8913 H   0  0  0  0  0  0  0  0  0  0  0  0
    7.7704   -1.6624   -5.1146 H   0  0  0  0  0  0  0  0  0  0  0  0
    5.8292    1.5543   -1.5549 H   0  0  0  0  0  0  0  0  0  0  0  0
    6.0281    2.4381    2.6040 H   0  0  0  0  0  0  0  0  0  0  0  0
    4.8496    4.5510    2.7065 H   0  0  0  0  0  0  0  0  0  0  0  0
    4.9531    7.0571   -0.1079 H   0  0  0  0  0  0  0  0  0  0  0  0
    3.1618    8.2006   -0.7400 H   0  0  0  0  0  0  0  0  0  0  0  0
    1.9302   10.3536   -0.8455 H   0  0  0  0  0  0  0  0  0  0  0  0
    1.5947   11.4173    6.6278 H   0  0  0  0  0  0  0  0  0  0  0  0
    0.5081   13.3882    5.4059 H   0  0  0  0  0  0  0  0  0  0  0  0
    0.7577   12.7555    2.7301 H   0  0  0  0  0  0  0  0  0  0  0  0
    3.0770    8.5801    3.5659 H   0  0  0  0  0  0  0  0  0  0  0  0
    6.4275    5.6231   -1.1775 H   0  0  0  0  0  0  0  0  0  0  0  0
    7.6702    3.5319   -1.2237 H   0  0  0  0  0  0  0  0  0  0  0  0
    9.4572   -0.0066    0.1800 H   0  0  0  0  0  0  0  0  0  0  0  0
    9.9146   -1.1128   -2.0120 H   0  0  0  0  0  0  0  0  0  0  0  0
  1  2  1  0  0  0  0
  1 33  1  0  0  0  0
  1 34  1  0  0  0  0
  1 35  1  0  0  0  0
  2  3  1  0  0  0  0
  2  4  1  0  0  0  0
  3 36  1  0  0  0  0
  3 37  1  0  0  0  0
  3 38  1  0  0  0  0
  4  5  2  0  0  0  0
  4  6  1  0  0  0  0
  6  7  2  0  0  0  0
  6 32  1  0  0  0  0
  7  8  1  0  0  0  0
  7 39  1  0  0  0  0
  8  9  1  0  0  0  0
  8 30  2  0  0  0  0
  9 10  1  0  0  0  0
 10 11  2  0  0  0  0
 10 29  1  0  0  0  0
 11 12  1  0  0  0  0
 11 40  1  0  0  0  0
 12 13  2  0  0  0  0
 12 41  1  0  0  0  0
 13 14  1  0  0  0  0
 13 28  1  0  0  0  0
 14 15  1  0  0  0  0
 14 42  1  0  0  0  0
 15 16  2  0  0  0  0
 15 17  1  0  0  0  0
 17 18  2  0  0  0  0
 17 27  1  0  0  0  0
 18 19  1  0  0  0  0
 18 43  1  0  0  0  0
 19 20  2  0  0  0  0
 19 44  1  0  0  0  0
 20 21  1  0  0  0  0
 21 22  1  0  0  0  0
 21 27  2  0  0  0  0
 22 23  2  0  0  0  0
 22 26  1  0  0  0  0
 23 24  1  0  0  0  0
 24 25  1  0  0  0  0
 24 45  1  0  0  0  0
 25 26  2  0  0  0  0
 25 46  1  0  0  0  0
 26 47  1  0  0  0  0
 27 48  1  0  0  0  0
 28 29  2  0  0  0  0
 28 49  1  0  0  0  0
 29 50  1  0  0  0  0
 30 31  1  0  0  0  0
 30 51  1  0  0  0  0
 31 32  2  0  0  0  0
 31 52  1  0  0  0  0
M  END
$$$$
