
 OpenBabel01122422413D

 49 52  0  0  0  0  0  0  0  0999 V2000
   10.1775   -1.7220   -1.0283 C   0  0  0  0  0  0  0  0  0  0  0  0
    8.8634   -1.9057   -1.7177 C   0  0  0  0  0  0  0  0  0  0  0  0
    8.6967   -1.7345   -3.0407 C   0  0  0  0  0  0  0  0  0  0  0  0
    7.3938   -1.8640   -3.6356 C   0  0  0  0  0  0  0  0  0  0  0  0
    6.3254   -2.0822   -2.8692 C   0  0  0  0  0  0  0  0  0  0  0  0
    6.4316   -2.2341   -1.4939 N   0  0  0  0  0  0  0  0  0  0  0  0
    5.2209   -2.2312   -0.6595 C   0  0  0  0  0  0  0  0  0  0  0  0
    4.4867   -3.5465   -0.5140 C   0  0  0  0  0  0  0  0  0  0  0  0
    3.5755   -3.8819   -1.5415 C   0  0  0  0  0  0  0  0  0  0  0  0
    3.4079   -3.0413   -2.5818 F   0  0  0  0  0  0  0  0  0  0  0  0
    2.7954   -5.0179   -1.5025 C   0  0  0  0  0  0  0  0  0  0  0  0
    2.8858   -5.8774   -0.4257 C   0  0  0  0  0  0  0  0  0  0  0  0
    3.7665   -5.5680    0.6122 C   0  0  0  0  0  0  0  0  0  0  0  0
    4.5696   -4.4106    0.5976 C   0  0  0  0  0  0  0  0  0  0  0  0
    5.4014   -4.1063    1.7139 N   0  0  0  0  0  0  0  0  0  0  0  0
    5.5660   -4.8605    2.8824 C   0  0  0  0  0  0  0  0  0  0  0  0
    5.0481   -5.9429    3.1176 O   0  0  0  0  0  0  0  0  0  0  0  0
    6.4733   -4.2257    3.9035 C   0  0  0  0  0  0  0  0  0  0  0  0
    6.6306   -2.8769    3.7343 N   0  0  0  0  0  0  0  0  0  0  0  0
    7.4424   -2.2525    4.5892 C   0  0  0  0  0  0  0  0  0  0  0  0
    7.7184   -0.9035    4.3563 N   0  0  0  0  0  0  0  0  0  0  0  0
    8.0944   -2.8906    5.6287 C   0  0  0  0  0  0  0  0  0  0  0  0
    8.0857   -4.2787    5.6667 C   0  0  0  0  0  0  0  0  0  0  0  0
    9.0485   -4.9431    6.4336 C   0  0  0  0  0  0  0  0  0  0  0  0
    9.1162   -6.3338    6.4393 C   0  0  0  0  0  0  0  0  0  0  0  0
    8.1313   -7.0676    5.7950 C   0  0  0  0  0  0  0  0  0  0  0  0
    7.1644   -6.4118    5.0299 C   0  0  0  0  0  0  0  0  0  0  0  0
    7.1907   -5.0019    4.8550 C   0  0  0  0  0  0  0  0  0  0  0  0
    7.6706   -2.2165   -0.8516 C   0  0  0  0  0  0  0  0  0  0  0  0
    7.8086   -2.3736    0.3620 O   0  0  0  0  0  0  0  0  0  0  0  0
   10.9452   -1.3386   -1.7096 H   0  0  0  0  0  0  0  0  0  0  0  0
   10.5339   -2.6728   -0.6189 H   0  0  0  0  0  0  0  0  0  0  0  0
   10.0813   -1.0008   -0.2101 H   0  0  0  0  0  0  0  0  0  0  0  0
    9.5232   -1.4570   -3.6878 H   0  0  0  0  0  0  0  0  0  0  0  0
    7.3015   -1.7368   -4.7137 H   0  0  0  0  0  0  0  0  0  0  0  0
    5.3338   -2.1227   -3.3064 H   0  0  0  0  0  0  0  0  0  0  0  0
    4.5343   -1.4793   -1.0776 H   0  0  0  0  0  0  0  0  0  0  0  0
    5.4669   -1.8289    0.3281 H   0  0  0  0  0  0  0  0  0  0  0  0
    2.0909   -5.2263   -2.3111 H   0  0  0  0  0  0  0  0  0  0  0  0
    2.2711   -6.7729   -0.3639 H   0  0  0  0  0  0  0  0  0  0  0  0
    3.7729   -6.2677    1.4424 H   0  0  0  0  0  0  0  0  0  0  0  0
    5.9634   -3.2552    1.6949 H   0  0  0  0  0  0  0  0  0  0  0  0
    8.7260   -0.7748    4.2975 H   0  0  0  0  0  0  0  0  0  0  0  0
    7.2797   -0.6635    3.4704 H   0  0  0  0  0  0  0  0  0  0  0  0
    8.6816   -2.3122    6.3334 H   0  0  0  0  0  0  0  0  0  0  0  0
    9.8200   -4.3799    6.9558 H   0  0  0  0  0  0  0  0  0  0  0  0
    9.9376   -6.8375    6.9421 H   0  0  0  0  0  0  0  0  0  0  0  0
    8.1360   -8.1533    5.8470 H   0  0  0  0  0  0  0  0  0  0  0  0
    6.4205   -7.0286    4.5312 H   0  0  0  0  0  0  0  0  0  0  0  0
  1  2  1  0  0  0  0
  1 31  1  0  0  0  0
  1 32  1  0  0  0  0
  1 33  1  0  0  0  0
  2  3  2  0  0  0  0
  2 29  1  0  0  0  0
  3  4  1  0  0  0  0
  3 34  1  0  0  0  0
  4  5  2  0  0  0  0
  4 35  1  0  0  0  0
  5  6  1  0  0  0  0
  5 36  1  0  0  0  0
  6  7  1  0  0  0  0
  6 29  1  0  0  0  0
  7  8  1  0  0  0  0
  7 37  1  0  0  0  0
  7 38  1  0  0  0  0
  8  9  2  0  0  0  0
  8 14  1  0  0  0  0
  9 10  1  0  0  0  0
  9 11  1  0  0  0  0
 11 12  2  0  0  0  0
 11 39  1  0  0  0  0
 12 13  1  0  0  0  0
 12 40  1  0  0  0  0
 13 14  2  0  0  0  0
 13 41  1  0  0  0  0
 14 15  1  0  0  0  0
 15 16  1  0  0  0  0
 15 42  1  0  0  0  0
 16 17  2  0  0  0  0
 16 18  1  0  0  0  0
 18 19  2  0  0  0  0
 18 28  1  0  0  0  0
 19 20  1  0  0  0  0
 20 21  1  0  0  0  0
 20 22  2  0  0  0  0
 21 43  1  0  0  0  0
 21 44  1  0  0  0  0
 22 23  1  0  0  0  0
 22 45  1  0  0  0  0
 23 24  2  0  0  0  0
 23 28  1  0  0  0  0
 24 25  1  0  0  0  0
 24 46  1  0  0  0  0
 25 26  2  0  0  0  0
 25 47  1  0  0  0  0
 26 27  1  0  0  0  0
 26 48  1  0  0  0  0
 27 28  2  0  0  0  0
 27 49  1  0  0  0  0
 29 30  2  0  0  0  0
M  END
$$$$
