
 OpenBabel01122422413D

 41 44  0  0  0  0  0  0  0  0999 V2000
    0.9923   -0.1319    0.0165 O   0  0  0  0  0  0  0  0  0  0  0  0
    2.2071    0.0224    0.0295 C   0  0  0  0  0  0  0  0  0  0  0  0
    2.9183    1.0157    0.6890 N   0  0  0  0  0  0  0  0  0  0  0  0
    2.3327    2.0176    1.5046 C   0  0  0  0  0  0  0  0  0  0  0  0
    0.9551    2.0946    1.7343 C   0  0  0  0  0  0  0  0  0  0  0  0
    0.4045    3.1013    2.5228 C   0  0  0  0  0  0  0  0  0  0  0  0
    1.2304    4.0551    3.0906 C   0  0  0  0  0  0  0  0  0  0  0  0
    0.6475    5.0178    3.8191 F   0  0  0  0  0  0  0  0  0  0  0  0
    2.6132    4.0122    2.8923 C   0  0  0  0  0  0  0  0  0  0  0  0
    3.4662    5.0407    3.4688 C   0  0  0  0  0  0  0  0  0  0  0  0
    4.8001    5.0865    3.3007 N   0  0  0  0  0  0  0  0  0  0  0  0
    5.1223    6.2137    3.9482 N   0  0  0  0  0  0  0  0  0  0  0  0
    4.0333    6.7994    4.4992 C   0  0  0  0  0  0  0  0  0  0  0  0
    2.9725    6.0881    4.2117 N   0  0  0  0  0  0  0  0  0  0  0  0
    3.1608    2.9774    2.1012 C   0  0  0  0  0  0  0  0  0  0  0  0
    3.0039   -0.9456   -0.8106 C   0  0  0  0  0  0  0  0  0  0  0  0
    4.1085   -0.5222   -1.3724 N   0  0  0  0  0  0  0  0  0  0  0  0
    4.7269   -1.3874   -2.2530 N   0  0  0  0  0  0  0  0  0  0  0  0
    5.9595   -0.9499   -2.8274 C   0  0  0  0  0  0  0  0  0  0  0  0
    6.2745    0.4167   -2.9248 C   0  0  0  0  0  0  0  0  0  0  0  0
    7.4483    0.8378   -3.5608 C   0  0  0  0  0  0  0  0  0  0  0  0
    8.3372   -0.0965   -4.0923 C   0  0  0  0  0  0  0  0  0  0  0  0
    8.0642   -1.4515   -3.9798 C   0  0  0  0  0  0  0  0  0  0  0  0
    6.8963   -1.8658   -3.3528 C   0  0  0  0  0  0  0  0  0  0  0  0
    6.6981   -3.1899   -3.2606 F   0  0  0  0  0  0  0  0  0  0  0  0
    4.1302   -2.5647   -2.6795 C   0  0  0  0  0  0  0  0  0  0  0  0
    3.0359   -3.1090   -2.1524 C   0  0  0  0  0  0  0  0  0  0  0  0
    2.4609   -2.3453   -1.0461 C   0  0  0  0  0  0  0  0  0  0  0  0
    1.5915   -2.8382   -0.3466 O   0  0  0  0  0  0  0  0  0  0  0  0
    3.9227    1.0461    0.5385 H   0  0  0  0  0  0  0  0  0  0  0  0
    0.2532    1.3861    1.3106 H   0  0  0  0  0  0  0  0  0  0  0  0
   -0.6674    3.1470    2.6858 H   0  0  0  0  0  0  0  0  0  0  0  0
    6.0866    6.5223    3.9629 H   0  0  0  0  0  0  0  0  0  0  0  0
    4.0611    7.7140    5.0742 H   0  0  0  0  0  0  0  0  0  0  0  0
    4.2382    2.9426    1.9540 H   0  0  0  0  0  0  0  0  0  0  0  0
    5.5842    1.1662   -2.5457 H   0  0  0  0  0  0  0  0  0  0  0  0
    7.6598    1.9009   -3.6579 H   0  0  0  0  0  0  0  0  0  0  0  0
    9.2415    0.2313   -4.5968 H   0  0  0  0  0  0  0  0  0  0  0  0
    8.7371   -2.2008   -4.3811 H   0  0  0  0  0  0  0  0  0  0  0  0
    4.6000   -3.0655   -3.5082 H   0  0  0  0  0  0  0  0  0  0  0  0
    2.6038   -4.0433   -2.4651 H   0  0  0  0  0  0  0  0  0  0  0  0
  1  2  2  0  0  0  0
  2  3  1  0  0  0  0
  2 16  1  0  0  0  0
  3  4  1  0  0  0  0
  3 30  1  0  0  0  0
  4  5  2  0  0  0  0
  4 15  1  0  0  0  0
  5  6  1  0  0  0  0
  5 31  1  0  0  0  0
  6  7  2  0  0  0  0
  6 32  1  0  0  0  0
  7  8  1  0  0  0  0
  7  9  1  0  0  0  0
  9 10  1  0  0  0  0
  9 15  2  0  0  0  0
 10 11  2  0  0  0  0
 10 14  1  0  0  0  0
 11 12  1  0  0  0  0
 12 13  1  0  0  0  0
 12 33  1  0  0  0  0
 13 14  2  0  0  0  0
 13 34  1  0  0  0  0
 15 35  1  0  0  0  0
 16 17  2  0  0  0  0
 16 28  1  0  0  0  0
 17 18  1  0  0  0  0
 18 19  1  0  0  0  0
 18 26  1  0  0  0  0
 19 20  2  0  0  0  0
 19 24  1  0  0  0  0
 20 21  1  0  0  0  0
 20 36  1  0  0  0  0
 21 22  2  0  0  0  0
 21 37  1  0  0  0  0
 22 23  1  0  0  0  0
 22 38  1  0  0  0  0
 23 24  2  0  0  0  0
 23 39  1  0  0  0  0
 24 25  1  0  0  0  0
 26 27  2  0  0  0  0
 26 40  1  0  0  0  0
 27 28  1  0  0  0  0
 27 41  1  0  0  0  0
 28 29  2  0  0  0  0
M  END
$$$$
