
 OpenBabel01122422413D

 48 51  0  0  0  0  0  0  0  0999 V2000
    0.2143    3.6283    1.2311 N   0  0  0  0  0  0  0  0  0  0  0  0
    0.7432    2.7629    0.6657 C   0  0  0  0  0  0  0  0  0  0  0  0
    1.4121    1.6540   -0.0321 C   0  0  0  0  0  0  0  0  0  0  0  0
    2.0577    2.0996   -1.3219 C   0  0  0  0  0  0  0  0  0  0  0  0
    3.3772    2.5667   -1.3209 C   0  0  0  0  0  0  0  0  0  0  0  0
    3.9624    3.0461   -2.4950 C   0  0  0  0  0  0  0  0  0  0  0  0
    3.2396    3.0711   -3.6898 C   0  0  0  0  0  0  0  0  0  0  0  0
    3.7032    3.5377   -4.8936 O   0  0  0  0  0  0  0  0  0  0  0  0
    5.0272    4.0671   -4.8786 C   0  0  0  0  0  0  0  0  0  0  0  0
    5.3691    4.6686   -6.2181 C   0  0  0  0  0  0  0  0  0  0  0  0
    5.0894    6.0219   -6.4461 C   0  0  0  0  0  0  0  0  0  0  0  0
    5.4848    6.6696   -7.6201 C   0  0  0  0  0  0  0  0  0  0  0  0
    5.2977    8.0623   -7.8191 N   0  0  0  0  0  0  0  0  0  0  0  0
    5.0741    8.9582   -6.7910 C   0  0  0  0  0  0  0  0  0  0  0  0
    5.0934    8.6833   -5.5914 O   0  0  0  0  0  0  0  0  0  0  0  0
    4.8299   10.3825   -7.1955 C   0  0  0  0  0  0  0  0  0  0  0  0
    5.0402   11.3050   -6.2403 C   0  0  0  0  0  0  0  0  0  0  0  0
    4.6808   12.6451   -6.4876 C   0  0  0  0  0  0  0  0  0  0  0  0
    4.6912   13.7832   -5.7127 C   0  0  0  0  0  0  0  0  0  0  0  0
    4.1219   14.8196   -6.4861 C   0  0  0  0  0  0  0  0  0  0  0  0
    3.8092   14.2884   -7.7203 C   0  0  0  0  0  0  0  0  0  0  0  0
    4.1432   12.9463   -7.7287 N   0  0  0  0  0  0  0  0  0  0  0  0
    3.9489   12.0185   -8.7743 C   0  0  0  0  0  0  0  0  0  0  0  0
    3.4714   12.3642   -9.8469 O   0  0  0  0  0  0  0  0  0  0  0  0
    4.3229   10.7352   -8.4283 N   0  0  0  0  0  0  0  0  0  0  0  0
    6.1006    5.9144   -8.6217 C   0  0  0  0  0  0  0  0  0  0  0  0
    6.3554    4.5509   -8.4212 C   0  0  0  0  0  0  0  0  0  0  0  0
    5.9957    3.9299   -7.2226 C   0  0  0  0  0  0  0  0  0  0  0  0
    1.9270    2.5955   -3.6974 C   0  0  0  0  0  0  0  0  0  0  0  0
    1.3370    2.1134   -2.5239 C   0  0  0  0  0  0  0  0  0  0  0  0
    0.6962    0.8498   -0.2375 H   0  0  0  0  0  0  0  0  0  0  0  0
    2.1755    1.2140    0.6223 H   0  0  0  0  0  0  0  0  0  0  0  0
    3.9616    2.5782   -0.4026 H   0  0  0  0  0  0  0  0  0  0  0  0
    4.9838    3.4062   -2.4305 H   0  0  0  0  0  0  0  0  0  0  0  0
    5.7494    3.2770   -4.6420 H   0  0  0  0  0  0  0  0  0  0  0  0
    5.1154    4.8585   -4.1209 H   0  0  0  0  0  0  0  0  0  0  0  0
    4.5568    6.5560   -5.6635 H   0  0  0  0  0  0  0  0  0  0  0  0
    5.5184    8.4280   -8.7337 H   0  0  0  0  0  0  0  0  0  0  0  0
    5.4243   11.0363   -5.2589 H   0  0  0  0  0  0  0  0  0  0  0  0
    5.0375   13.8489   -4.6882 H   0  0  0  0  0  0  0  0  0  0  0  0
    3.9464   15.8400   -6.1697 H   0  0  0  0  0  0  0  0  0  0  0  0
    3.3510   14.7364   -8.5920 H   0  0  0  0  0  0  0  0  0  0  0  0
    4.0964   10.0232   -9.1093 H   0  0  0  0  0  0  0  0  0  0  0  0
    6.4216    6.3714   -9.5532 H   0  0  0  0  0  0  0  0  0  0  0  0
    6.8566    3.9722   -9.1933 H   0  0  0  0  0  0  0  0  0  0  0  0
    6.2167    2.8761   -7.0717 H   0  0  0  0  0  0  0  0  0  0  0  0
    1.3523    2.6144   -4.6209 H   0  0  0  0  0  0  0  0  0  0  0  0
    0.3065    1.7653   -2.5573 H   0  0  0  0  0  0  0  0  0  0  0  0
  1  2  3  0  0  0  0
  2  3  1  0  0  0  0
  3  4  1  0  0  0  0
  3 31  1  0  0  0  0
  3 32  1  0  0  0  0
  4  5  2  0  0  0  0
  4 30  1  0  0  0  0
  5  6  1  0  0  0  0
  5 33  1  0  0  0  0
  6  7  2  0  0  0  0
  6 34  1  0  0  0  0
  7  8  1  0  0  0  0
  7 29  1  0  0  0  0
  8  9  1  0  0  0  0
  9 10  1  0  0  0  0
  9 35  1  0  0  0  0
  9 36  1  0  0  0  0
 10 11  2  0  0  0  0
 10 28  1  0  0  0  0
 11 12  1  0  0  0  0
 11 37  1  0  0  0  0
 12 13  1  0  0  0  0
 12 26  2  0  0  0  0
 13 14  1  0  0  0  0
 13 38  1  0  0  0  0
 14 15  2  0  0  0  0
 14 16  1  0  0  0  0
 16 17  2  0  0  0  0
 16 25  1  0  0  0  0
 17 18  1  0  0  0  0
 17 39  1  0  0  0  0
 18 19  2  0  0  0  0
 18 22  1  0  0  0  0
 19 20  1  0  0  0  0
 19 40  1  0  0  0  0
 20 21  2  0  0  0  0
 20 41  1  0  0  0  0
 21 22  1  0  0  0  0
 21 42  1  0  0  0  0
 22 23  1  0  0  0  0
 23 24  2  0  0  0  0
 23 25  1  0  0  0  0
 25 43  1  0  0  0  0
 26 27  1  0  0  0  0
 26 44  1  0  0  0  0
 27 28  2  0  0  0  0
 27 45  1  0  0  0  0
 28 46  1  0  0  0  0
 29 30  2  0  0  0  0
 29 47  1  0  0  0  0
 30 48  1  0  0  0  0
M  END
$$$$
