
 OpenBabel01122422353D

 44 46  0  0  0  0  0  0  0  0999 V2000
    1.0244    0.1821   -0.0178 O   0  0  0  0  0  0  0  0  0  0  0  0
    2.2376    0.0924    0.1369 C   0  0  0  0  0  0  0  0  0  0  0  0
    2.9701    1.0008    0.8690 N   0  0  0  0  0  0  0  0  0  0  0  0
    2.3008    2.1617    1.4155 C   0  0  0  0  0  0  0  0  0  0  0  0
    3.2363    3.0535    2.1674 C   0  0  0  0  0  0  0  0  0  0  0  0
    3.8526    4.1441    1.5506 C   0  0  0  0  0  0  0  0  0  0  0  0
    3.6033    4.4108    0.2607 F   0  0  0  0  0  0  0  0  0  0  0  0
    4.7331    4.9750    2.2420 C   0  0  0  0  0  0  0  0  0  0  0  0
    5.0049    4.7052    3.5775 C   0  0  0  0  0  0  0  0  0  0  0  0
    5.8609    5.4789    4.3023 O   0  0  0  0  0  0  0  0  0  0  0  0
    4.4087    3.6265    4.2182 C   0  0  0  0  0  0  0  0  0  0  0  0
    3.5329    2.8106    3.5085 C   0  0  0  0  0  0  0  0  0  0  0  0
    2.9690    1.7703    4.1381 F   0  0  0  0  0  0  0  0  0  0  0  0
    2.9954   -0.9972   -0.5329 C   0  0  0  0  0  0  0  0  0  0  0  0
    2.4905   -1.4761   -1.7406 C   0  0  0  0  0  0  0  0  0  0  0  0
    3.1447   -2.5035   -2.4219 C   0  0  0  0  0  0  0  0  0  0  0  0
    4.3103   -3.0840   -1.9144 C   0  0  0  0  0  0  0  0  0  0  0  0
    5.0054   -4.1315   -2.5756 N   0  0  0  0  0  0  0  0  0  0  0  0
    4.6505   -4.6897   -3.7950 C   0  0  0  0  0  0  0  0  0  0  0  0
    3.7000   -4.3469   -4.4939 O   0  0  0  0  0  0  0  0  0  0  0  0
    5.4969   -5.7927   -4.3334 C   0  0  0  0  0  0  0  0  0  0  0  0
    6.2452   -6.6595   -3.5306 C   0  0  0  0  0  0  0  0  0  0  0  0
    6.9417   -7.7226   -4.1187 C   0  0  0  0  0  0  0  0  0  0  0  0
    6.8911   -7.9263   -5.4999 C   0  0  0  0  0  0  0  0  0  0  0  0
    6.1501   -7.0661   -6.3043 C   0  0  0  0  0  0  0  0  0  0  0  0
    5.4581   -6.0056   -5.7233 C   0  0  0  0  0  0  0  0  0  0  0  0
    4.8073   -2.6114   -0.6903 C   0  0  0  0  0  0  0  0  0  0  0  0
    4.1539   -1.5728   -0.0015 C   0  0  0  0  0  0  0  0  0  0  0  0
    3.9770    1.0060    0.7906 H   0  0  0  0  0  0  0  0  0  0  0  0
    1.4888    1.8183    2.0685 H   0  0  0  0  0  0  0  0  0  0  0  0
    1.8202    2.7068    0.5932 H   0  0  0  0  0  0  0  0  0  0  0  0
    5.1852    5.8120    1.7213 H   0  0  0  0  0  0  0  0  0  0  0  0
    6.2001    6.1972    3.7420 H   0  0  0  0  0  0  0  0  0  0  0  0
    4.6177    3.4151    5.2619 H   0  0  0  0  0  0  0  0  0  0  0  0
    1.5829   -1.0528   -2.1667 H   0  0  0  0  0  0  0  0  0  0  0  0
    2.6965   -2.8224   -3.3564 H   0  0  0  0  0  0  0  0  0  0  0  0
    5.8552   -4.4539   -2.1316 H   0  0  0  0  0  0  0  0  0  0  0  0
    6.2659   -6.5607   -2.4503 H   0  0  0  0  0  0  0  0  0  0  0  0
    7.5083   -8.4128   -3.4979 H   0  0  0  0  0  0  0  0  0  0  0  0
    7.4151   -8.7660   -5.9493 H   0  0  0  0  0  0  0  0  0  0  0  0
    6.0921   -7.2260   -7.3781 H   0  0  0  0  0  0  0  0  0  0  0  0
    4.8640   -5.3500   -6.3590 H   0  0  0  0  0  0  0  0  0  0  0  0
    5.6986   -3.0482   -0.2467 H   0  0  0  0  0  0  0  0  0  0  0  0
    4.5410   -1.2480    0.9619 H   0  0  0  0  0  0  0  0  0  0  0  0
  1  2  2  0  0  0  0
  2  3  1  0  0  0  0
  2 14  1  0  0  0  0
  3  4  1  0  0  0  0
  3 29  1  0  0  0  0
  4  5  1  0  0  0  0
  4 30  1  0  0  0  0
  4 31  1  0  0  0  0
  5  6  2  0  0  0  0
  5 12  1  0  0  0  0
  6  7  1  0  0  0  0
  6  8  1  0  0  0  0
  8  9  2  0  0  0  0
  8 32  1  0  0  0  0
  9 10  1  0  0  0  0
  9 11  1  0  0  0  0
 10 33  1  0  0  0  0
 11 12  2  0  0  0  0
 11 34  1  0  0  0  0
 12 13  1  0  0  0  0
 14 15  2  0  0  0  0
 14 28  1  0  0  0  0
 15 16  1  0  0  0  0
 15 35  1  0  0  0  0
 16 17  2  0  0  0  0
 16 36  1  0  0  0  0
 17 18  1  0  0  0  0
 17 27  1  0  0  0  0
 18 19  1  0  0  0  0
 18 37  1  0  0  0  0
 19 20  2  0  0  0  0
 19 21  1  0  0  0  0
 21 22  2  0  0  0  0
 21 26  1  0  0  0  0
 22 23  1  0  0  0  0
 22 38  1  0  0  0  0
 23 24  2  0  0  0  0
 23 39  1  0  0  0  0
 24 25  1  0  0  0  0
 24 40  1  0  0  0  0
 25 26  2  0  0  0  0
 25 41  1  0  0  0  0
 26 42  1  0  0  0  0
 27 28  2  0  0  0  0
 27 43  1  0  0  0  0
 28 44  1  0  0  0  0
M  END
$$$$
