
 OpenBabel01122422413D

 43 46  0  0  0  0  0  0  0  0999 V2000
    5.1073   -1.2199   -1.5845 O   0  0  0  0  0  0  0  0  0  0  0  0
    4.2660   -0.6035   -0.9550 C   0  0  0  0  0  0  0  0  0  0  0  0
    4.2948    0.7971   -0.7796 N   0  0  0  0  0  0  0  0  0  0  0  0
    3.2196    1.1983   -0.0419 C   0  0  0  0  0  0  0  0  0  0  0  0
    2.4924    0.1225    0.2730 C   0  0  0  0  0  0  0  0  0  0  0  0
    3.0837   -1.0142   -0.2618 N   0  0  0  0  0  0  0  0  0  0  0  0
    2.6409   -2.3520   -0.2053 C   0  0  0  0  0  0  0  0  0  0  0  0
    1.4355   -2.6605    0.4155 C   0  0  0  0  0  0  0  0  0  0  0  0
    0.9800   -3.9791    0.4202 C   0  0  0  0  0  0  0  0  0  0  0  0
    1.7302   -5.0061   -0.1659 C   0  0  0  0  0  0  0  0  0  0  0  0
    1.2798   -6.4117   -0.1375 C   0  0  0  0  0  0  0  0  0  0  0  0
    0.5184   -6.8800    0.9488 C   0  0  0  0  0  0  0  0  0  0  0  0
    0.0874   -8.2059    1.0384 C   0  0  0  0  0  0  0  0  0  0  0  0
   -0.6090   -8.7162    2.1001 O   0  0  0  0  0  0  0  0  0  0  0  0
   -0.4802   -7.9742    3.3175 C   0  0  0  0  0  0  0  0  0  0  0  0
   -0.8086   -8.8570    4.4894 C   0  0  0  0  0  0  0  0  0  0  0  0
   -0.1071  -10.0562    4.6743 C   0  0  0  0  0  0  0  0  0  0  0  0
   -0.3552  -10.8533    5.7892 C   0  0  0  0  0  0  0  0  0  0  0  0
   -1.3030  -10.4546    6.7299 C   0  0  0  0  0  0  0  0  0  0  0  0
   -2.0023   -9.2614    6.5576 C   0  0  0  0  0  0  0  0  0  0  0  0
   -1.7555   -8.4616    5.4423 C   0  0  0  0  0  0  0  0  0  0  0  0
    0.3713   -9.0911    0.0034 C   0  0  0  0  0  0  0  0  0  0  0  0
    1.1263   -8.6612   -1.0860 C   0  0  0  0  0  0  0  0  0  0  0  0
    1.5764   -7.3413   -1.1453 C   0  0  0  0  0  0  0  0  0  0  0  0
    2.2980   -6.9787   -2.2162 F   0  0  0  0  0  0  0  0  0  0  0  0
    2.9313   -4.6015   -0.7379 C   0  0  0  0  0  0  0  0  0  0  0  0
    3.3847   -3.3227   -0.7686 N   0  0  0  0  0  0  0  0  0  0  0  0
    5.0214    1.3737   -1.1735 H   0  0  0  0  0  0  0  0  0  0  0  0
    3.0449    2.2358    0.2064 H   0  0  0  0  0  0  0  0  0  0  0  0
    1.5791    0.1033    0.8476 H   0  0  0  0  0  0  0  0  0  0  0  0
    0.8171   -1.9076    0.8864 H   0  0  0  0  0  0  0  0  0  0  0  0
    0.0169   -4.1782    0.8843 H   0  0  0  0  0  0  0  0  0  0  0  0
    0.2754   -6.1874    1.7478 H   0  0  0  0  0  0  0  0  0  0  0  0
   -1.1568   -7.1115    3.2844 H   0  0  0  0  0  0  0  0  0  0  0  0
    0.5500   -7.6215    3.4686 H   0  0  0  0  0  0  0  0  0  0  0  0
    0.6406  -10.3670    3.9466 H   0  0  0  0  0  0  0  0  0  0  0  0
    0.1946  -11.7803    5.9240 H   0  0  0  0  0  0  0  0  0  0  0  0
   -1.4945  -11.0753    7.6005 H   0  0  0  0  0  0  0  0  0  0  0  0
   -2.7372   -8.9503    7.2953 H   0  0  0  0  0  0  0  0  0  0  0  0
   -2.3014   -7.5281    5.3263 H   0  0  0  0  0  0  0  0  0  0  0  0
    0.0232  -10.1196    0.0543 H   0  0  0  0  0  0  0  0  0  0  0  0
    1.3744   -9.3460   -1.8912 H   0  0  0  0  0  0  0  0  0  0  0  0
    3.6118   -5.3119   -1.2017 H   0  0  0  0  0  0  0  0  0  0  0  0
  1  2  2  0  0  0  0
  2  3  1  0  0  0  0
  2  6  1  0  0  0  0
  3  4  1  0  0  0  0
  3 28  1  0  0  0  0
  4  5  2  0  0  0  0
  4 29  1  0  0  0  0
  5  6  1  0  0  0  0
  5 30  1  0  0  0  0
  6  7  1  0  0  0  0
  7  8  2  0  0  0  0
  7 27  1  0  0  0  0
  8  9  1  0  0  0  0
  8 31  1  0  0  0  0
  9 10  2  0  0  0  0
  9 32  1  0  0  0  0
 10 11  1  0  0  0  0
 10 26  1  0  0  0  0
 11 12  2  0  0  0  0
 11 24  1  0  0  0  0
 12 13  1  0  0  0  0
 12 33  1  0  0  0  0
 13 14  1  0  0  0  0
 13 22  2  0  0  0  0
 14 15  1  0  0  0  0
 15 16  1  0  0  0  0
 15 34  1  0  0  0  0
 15 35  1  0  0  0  0
 16 17  2  0  0  0  0
 16 21  1  0  0  0  0
 17 18  1  0  0  0  0
 17 36  1  0  0  0  0
 18 19  2  0  0  0  0
 18 37  1  0  0  0  0
 19 20  1  0  0  0  0
 19 38  1  0  0  0  0
 20 21  2  0  0  0  0
 20 39  1  0  0  0  0
 21 40  1  0  0  0  0
 22 23  1  0  0  0  0
 22 41  1  0  0  0  0
 23 24  2  0  0  0  0
 23 42  1  0  0  0  0
 24 25  1  0  0  0  0
 26 27  2  0  0  0  0
 26 43  1  0  0  0  0
M  END
$$$$
