
 OpenBabel01122422413D

 48 51  0  0  0  0  0  0  0  0999 V2000
    1.0106   -0.2281    0.0835 C   0  0  0  0  0  0  0  0  0  0  0  0
    2.4580   -0.1619    0.2160 N   0  0  0  0  0  0  0  0  0  0  0  0
    2.9608    0.8621    1.1568 C   0  0  0  0  0  0  0  0  0  0  0  0
    3.9243    1.8386    0.5743 C   0  0  0  0  0  0  0  0  0  0  0  0
    5.0103    2.2550    1.2420 N   0  0  0  0  0  0  0  0  0  0  0  0
    5.5920    3.0547    0.3320 N   0  0  0  0  0  0  0  0  0  0  0  0
    4.8773    3.1001   -0.8338 C   0  0  0  0  0  0  0  0  0  0  0  0
    5.2869    3.8083   -2.0399 C   0  0  0  0  0  0  0  0  0  0  0  0
    6.6359    4.0548   -2.3315 C   0  0  0  0  0  0  0  0  0  0  0  0
    7.0002    4.6937   -3.5224 C   0  0  0  0  0  0  0  0  0  0  0  0
    6.0183    5.0900   -4.4265 C   0  0  0  0  0  0  0  0  0  0  0  0
    4.6759    4.8490   -4.1488 C   0  0  0  0  0  0  0  0  0  0  0  0
    4.3127    4.2108   -2.9638 C   0  0  0  0  0  0  0  0  0  0  0  0
    3.7798    2.3854   -0.6713 N   0  0  0  0  0  0  0  0  0  0  0  0
    3.1906   -1.0748   -0.5714 C   0  0  0  0  0  0  0  0  0  0  0  0
    2.6250   -1.9296   -1.2544 O   0  0  0  0  0  0  0  0  0  0  0  0
    4.6794   -1.0609   -0.6108 C   0  0  0  0  0  0  0  0  0  0  0  0
    5.3626   -1.0192    0.6104 C   0  0  0  0  0  0  0  0  0  0  0  0
    6.7451   -0.9609    0.6192 C   0  0  0  0  0  0  0  0  0  0  0  0
    7.4957   -1.0187   -0.4933 N   0  0  0  0  0  0  0  0  0  0  0  0
    6.8240   -1.1806   -1.6566 C   0  0  0  0  0  0  0  0  0  0  0  0
    5.4345   -1.2023   -1.7883 C   0  0  0  0  0  0  0  0  0  0  0  0
    5.0284   -1.5412   -3.0555 O   0  0  0  0  0  0  0  0  0  0  0  0
    3.9773   -0.9368   -3.6905 C   0  0  0  0  0  0  0  0  0  0  0  0
    3.4990    0.3394   -3.4140 C   0  0  0  0  0  0  0  0  0  0  0  0
    2.3594    0.8118   -4.0684 C   0  0  0  0  0  0  0  0  0  0  0  0
    1.7480    0.0280   -5.0400 C   0  0  0  0  0  0  0  0  0  0  0  0
    0.6405    0.4743   -5.6467 F   0  0  0  0  0  0  0  0  0  0  0  0
    2.2699   -1.2102   -5.3916 C   0  0  0  0  0  0  0  0  0  0  0  0
    3.3910   -1.6917   -4.7148 C   0  0  0  0  0  0  0  0  0  0  0  0
    0.5138    0.2290    0.9450 H   0  0  0  0  0  0  0  0  0  0  0  0
    0.6760   -1.2672    0.0177 H   0  0  0  0  0  0  0  0  0  0  0  0
    0.7210    0.3037   -0.8274 H   0  0  0  0  0  0  0  0  0  0  0  0
    3.3862    0.3454    2.0229 H   0  0  0  0  0  0  0  0  0  0  0  0
    2.1160    1.4422    1.5481 H   0  0  0  0  0  0  0  0  0  0  0  0
    6.4593    3.5253    0.5624 H   0  0  0  0  0  0  0  0  0  0  0  0
    7.4248    3.7240   -1.6664 H   0  0  0  0  0  0  0  0  0  0  0  0
    8.0478    4.8631   -3.7461 H   0  0  0  0  0  0  0  0  0  0  0  0
    6.2976    5.5768   -5.3578 H   0  0  0  0  0  0  0  0  0  0  0  0
    3.9094    5.1480   -4.8603 H   0  0  0  0  0  0  0  0  0  0  0  0
    3.2607    4.0175   -2.7635 H   0  0  0  0  0  0  0  0  0  0  0  0
    4.8413   -1.0428    1.5581 H   0  0  0  0  0  0  0  0  0  0  0  0
    7.2923   -0.8757    1.5518 H   0  0  0  0  0  0  0  0  0  0  0  0
    7.4608   -1.3268   -2.5266 H   0  0  0  0  0  0  0  0  0  0  0  0
    3.9788    0.9641   -2.6728 H   0  0  0  0  0  0  0  0  0  0  0  0
    1.9419    1.7786   -3.8108 H   0  0  0  0  0  0  0  0  0  0  0  0
    1.7924   -1.7993   -6.1665 H   0  0  0  0  0  0  0  0  0  0  0  0
    3.7949   -2.6684   -4.9699 H   0  0  0  0  0  0  0  0  0  0  0  0
  1  2  1  0  0  0  0
  1 31  1  0  0  0  0
  1 32  1  0  0  0  0
  1 33  1  0  0  0  0
  2  3  1  0  0  0  0
  2 15  1  0  0  0  0
  3  4  1  0  0  0  0
  3 34  1  0  0  0  0
  3 35  1  0  0  0  0
  4  5  2  0  0  0  0
  4 14  1  0  0  0  0
  5  6  1  0  0  0  0
  6  7  1  0  0  0  0
  6 36  1  0  0  0  0
  7  8  1  0  0  0  0
  7 14  2  0  0  0  0
  8  9  2  0  0  0  0
  8 13  1  0  0  0  0
  9 10  1  0  0  0  0
  9 37  1  0  0  0  0
 10 11  2  0  0  0  0
 10 38  1  0  0  0  0
 11 12  1  0  0  0  0
 11 39  1  0  0  0  0
 12 13  2  0  0  0  0
 12 40  1  0  0  0  0
 13 41  1  0  0  0  0
 15 16  2  0  0  0  0
 15 17  1  0  0  0  0
 17 18  2  0  0  0  0
 17 22  1  0  0  0  0
 18 19  1  0  0  0  0
 18 42  1  0  0  0  0
 19 20  2  0  0  0  0
 19 43  1  0  0  0  0
 20 21  1  0  0  0  0
 21 22  2  0  0  0  0
 21 44  1  0  0  0  0
 22 23  1  0  0  0  0
 23 24  1  0  0  0  0
 24 25  2  0  0  0  0
 24 30  1  0  0  0  0
 25 26  1  0  0  0  0
 25 45  1  0  0  0  0
 26 27  2  0  0  0  0
 26 46  1  0  0  0  0
 27 28  1  0  0  0  0
 27 29  1  0  0  0  0
 29 30  2  0  0  0  0
 29 47  1  0  0  0  0
 30 48  1  0  0  0  0
M  END
$$$$
