
 OpenBabel01122422413D

 48 51  0  0  0  0  0  0  0  0999 V2000
    1.2286   -0.2656    0.2608 O   0  0  0  0  0  0  0  0  0  0  0  0
    2.3676    0.1708    0.1109 C   0  0  0  0  0  0  0  0  0  0  0  0
    3.0032    0.1352   -1.1108 N   0  0  0  0  0  0  0  0  0  0  0  0
    2.3626   -0.4554   -2.2672 C   0  0  0  0  0  0  0  0  0  0  0  0
    2.6518   -1.9168   -2.3132 C   0  0  0  0  0  0  0  0  0  0  0  0
    1.7552   -2.9620   -2.2241 C   0  0  0  0  0  0  0  0  0  0  0  0
    2.4795   -4.1105   -2.3122 N   0  0  0  0  0  0  0  0  0  0  0  0
    3.7983   -3.9024   -2.4821 N   0  0  0  0  0  0  0  0  0  0  0  0
    3.9158   -2.5569   -2.4646 C   0  0  0  0  0  0  0  0  0  0  0  0
    5.2391   -1.9408   -2.5843 C   0  0  0  0  0  0  0  0  0  0  0  0
    5.4540   -0.7359   -2.5534 O   0  0  0  0  0  0  0  0  0  0  0  0
    6.2285   -2.8690   -2.7182 O   0  0  0  0  0  0  0  0  0  0  0  0
    3.0925    0.7467    1.2904 C   0  0  0  0  0  0  0  0  0  0  0  0
    2.4819    0.6075    2.5448 C   0  0  0  0  0  0  0  0  0  0  0  0
    3.0664    1.1413    3.7007 C   0  0  0  0  0  0  0  0  0  0  0  0
    4.2836    1.8250    3.6380 C   0  0  0  0  0  0  0  0  0  0  0  0
    4.8174    2.4283    4.8761 C   0  0  0  0  0  0  0  0  0  0  0  0
    6.1225    2.5920    5.1505 C   0  0  0  0  0  0  0  0  0  0  0  0
    6.6683    3.2362    6.3637 C   0  0  0  0  0  0  0  0  0  0  0  0
    8.0417    3.4251    6.4607 C   0  0  0  0  0  0  0  0  0  0  0  0
    8.5558    4.0704    7.5806 C   0  0  0  0  0  0  0  0  0  0  0  0
    7.6978    4.4545    8.6117 C   0  0  0  0  0  0  0  0  0  0  0  0
    8.1953    5.0402    9.7899 C   0  0  0  0  0  0  0  0  0  0  0  0
    7.3359    5.3363   10.8434 C   0  0  0  0  0  0  0  0  0  0  0  0
    5.9756    5.0906   10.7040 C   0  0  0  0  0  0  0  0  0  0  0  0
    5.4802    4.5484    9.5082 C   0  0  0  0  0  0  0  0  0  0  0  0
    6.3176    4.2043    8.4528 C   0  0  0  0  0  0  0  0  0  0  0  0
    5.8114    3.6277    7.3375 N   0  0  0  0  0  0  0  0  0  0  0  0
    4.8897    1.9734    2.3801 C   0  0  0  0  0  0  0  0  0  0  0  0
    4.3057    1.4370    1.2157 C   0  0  0  0  0  0  0  0  0  0  0  0
    3.9775    0.3896   -1.2154 H   0  0  0  0  0  0  0  0  0  0  0  0
    2.7511    0.0403   -3.1621 H   0  0  0  0  0  0  0  0  0  0  0  0
    1.2826   -0.2768   -2.2263 H   0  0  0  0  0  0  0  0  0  0  0  0
    0.6817   -2.9786   -2.0875 H   0  0  0  0  0  0  0  0  0  0  0  0
    2.1402   -5.0672   -2.2687 H   0  0  0  0  0  0  0  0  0  0  0  0
    5.7734   -3.7458   -2.6914 H   0  0  0  0  0  0  0  0  0  0  0  0
    1.5290    0.0866    2.6335 H   0  0  0  0  0  0  0  0  0  0  0  0
    2.5526    1.0175    4.6509 H   0  0  0  0  0  0  0  0  0  0  0  0
    4.0727    2.7542    5.6013 H   0  0  0  0  0  0  0  0  0  0  0  0
    6.8677    2.2427    4.4426 H   0  0  0  0  0  0  0  0  0  0  0  0
    8.7144    3.0825    5.6822 H   0  0  0  0  0  0  0  0  0  0  0  0
    9.6260    4.2446    7.6516 H   0  0  0  0  0  0  0  0  0  0  0  0
    9.2592    5.2374    9.9030 H   0  0  0  0  0  0  0  0  0  0  0  0
    7.7289    5.7459   11.7710 H   0  0  0  0  0  0  0  0  0  0  0  0
    5.2963    5.3067   11.5242 H   0  0  0  0  0  0  0  0  0  0  0  0
    4.4134    4.3653    9.4124 H   0  0  0  0  0  0  0  0  0  0  0  0
    5.8175    2.5356    2.2821 H   0  0  0  0  0  0  0  0  0  0  0  0
    4.8113    1.6017    0.2671 H   0  0  0  0  0  0  0  0  0  0  0  0
  1  2  2  0  0  0  0
  2  3  1  0  0  0  0
  2 13  1  0  0  0  0
  3  4  1  0  0  0  0
  3 31  1  0  0  0  0
  4  5  1  0  0  0  0
  4 32  1  0  0  0  0
  4 33  1  0  0  0  0
  5  6  2  0  0  0  0
  5  9  1  0  0  0  0
  6  7  1  0  0  0  0
  6 34  1  0  0  0  0
  7  8  1  0  0  0  0
  7 35  1  0  0  0  0
  8  9  2  0  0  0  0
  9 10  1  0  0  0  0
 10 11  2  0  0  0  0
 10 12  1  0  0  0  0
 12 36  1  0  0  0  0
 13 14  2  0  0  0  0
 13 30  1  0  0  0  0
 14 15  1  0  0  0  0
 14 37  1  0  0  0  0
 15 16  2  0  0  0  0
 15 38  1  0  0  0  0
 16 17  1  0  0  0  0
 16 29  1  0  0  0  0
 17 18  2  3  0  0  0
 17 39  1  0  0  0  0
 18 19  1  0  0  0  0
 18 40  1  0  0  0  0
 19 20  2  0  0  0  0
 19 28  1  0  0  0  0
 20 21  1  0  0  0  0
 20 41  1  0  0  0  0
 21 22  2  0  0  0  0
 21 42  1  0  0  0  0
 22 23  1  0  0  0  0
 22 27  1  0  0  0  0
 23 24  2  0  0  0  0
 23 43  1  0  0  0  0
 24 25  1  0  0  0  0
 24 44  1  0  0  0  0
 25 26  2  0  0  0  0
 25 45  1  0  0  0  0
 26 27  1  0  0  0  0
 26 46  1  0  0  0  0
 27 28  2  0  0  0  0
 29 30  2  0  0  0  0
 29 47  1  0  0  0  0
 30 48  1  0  0  0  0
M  END
$$$$
