
 OpenBabel01122422413D

 48 51  0  0  0  0  0  0  0  0999 V2000
    3.5465    0.6914   -2.7881 C   0  0  0  0  0  0  0  0  0  0  0  0
    3.4057    0.5850   -1.3727 O   0  0  0  0  0  0  0  0  0  0  0  0
    4.2770    1.3152   -0.6138 C   0  0  0  0  0  0  0  0  0  0  0  0
    5.2846    2.1322   -1.1069 C   0  0  0  0  0  0  0  0  0  0  0  0
    6.0912    2.8485   -0.2245 C   0  0  0  0  0  0  0  0  0  0  0  0
    5.9198    2.7522    1.1770 C   0  0  0  0  0  0  0  0  0  0  0  0
    6.7062    3.4525    2.1335 C   0  0  0  0  0  0  0  0  0  0  0  0
    7.6823    4.3357    1.7360 O   0  0  0  0  0  0  0  0  0  0  0  0
    6.5035    3.2622    3.5021 C   0  0  0  0  0  0  0  0  0  0  0  0
    7.2819    3.9129    4.5955 C   0  0  0  0  0  0  0  0  0  0  0  0
    7.0257    3.6551    5.7684 O   0  0  0  0  0  0  0  0  0  0  0  0
    8.2709    4.7861    4.2201 N   0  0  0  0  0  0  0  0  0  0  0  0
    9.1085    5.4915    5.1549 C   0  0  0  0  0  0  0  0  0  0  0  0
   10.5636    5.1617    4.9456 C   0  0  0  0  0  0  0  0  0  0  0  0
   11.1308    4.0461    5.5699 C   0  0  0  0  0  0  0  0  0  0  0  0
   12.4884    3.7737    5.4214 C   0  0  0  0  0  0  0  0  0  0  0  0
   13.2935    4.6195    4.6529 C   0  0  0  0  0  0  0  0  0  0  0  0
   12.7616    5.7513    4.0093 C   0  0  0  0  0  0  0  0  0  0  0  0
   13.6123    6.7150    3.2765 C   0  0  0  0  0  0  0  0  0  0  0  0
   14.9317    6.9816    3.6497 C   0  0  0  0  0  0  0  0  0  0  0  0
   15.6478    7.9738    2.9838 C   0  0  0  0  0  0  0  0  0  0  0  0
   15.0373    8.6774    1.9564 C   0  0  0  0  0  0  0  0  0  0  0  0
   13.7331    8.3506    1.6318 C   0  0  0  0  0  0  0  0  0  0  0  0
   13.0133    7.3962    2.2641 N   0  0  0  0  0  0  0  0  0  0  0  0
   11.3774    5.9794    4.1432 C   0  0  0  0  0  0  0  0  0  0  0  0
    5.4896    2.3898    3.8663 C   0  0  0  0  0  0  0  0  0  0  0  0
    4.6992    1.7209    2.9864 N   0  0  0  0  0  0  0  0  0  0  0  0
    4.9131    1.8957    1.6738 C   0  0  0  0  0  0  0  0  0  0  0  0
    4.1107    1.2046    0.7721 C   0  0  0  0  0  0  0  0  0  0  0  0
    2.7173    0.1504   -3.2529 H   0  0  0  0  0  0  0  0  0  0  0  0
    4.4816    0.2272   -3.1190 H   0  0  0  0  0  0  0  0  0  0  0  0
    3.4851    1.7330   -3.1219 H   0  0  0  0  0  0  0  0  0  0  0  0
    5.4720    2.2394   -2.1692 H   0  0  0  0  0  0  0  0  0  0  0  0
    6.8620    3.4685   -0.6685 H   0  0  0  0  0  0  0  0  0  0  0  0
    7.6753    4.4546    0.7753 H   0  0  0  0  0  0  0  0  0  0  0  0
    8.4248    4.9380    3.2279 H   0  0  0  0  0  0  0  0  0  0  0  0
    8.8184    5.2731    6.1871 H   0  0  0  0  0  0  0  0  0  0  0  0
    8.9396    6.5627    4.9964 H   0  0  0  0  0  0  0  0  0  0  0  0
   10.5146    3.3937    6.1858 H   0  0  0  0  0  0  0  0  0  0  0  0
   12.9256    2.9118    5.9189 H   0  0  0  0  0  0  0  0  0  0  0  0
   14.3507    4.3787    4.5673 H   0  0  0  0  0  0  0  0  0  0  0  0
   15.3978    6.4578    4.4774 H   0  0  0  0  0  0  0  0  0  0  0  0
   16.6670    8.2040    3.2808 H   0  0  0  0  0  0  0  0  0  0  0  0
   15.5612    9.4656    1.4282 H   0  0  0  0  0  0  0  0  0  0  0  0
   13.2098    8.8714    0.8350 H   0  0  0  0  0  0  0  0  0  0  0  0
   10.9350    6.8406    3.6425 H   0  0  0  0  0  0  0  0  0  0  0  0
    5.2676    2.1859    4.9138 H   0  0  0  0  0  0  0  0  0  0  0  0
    3.3298    0.5551    1.1597 H   0  0  0  0  0  0  0  0  0  0  0  0
  1  2  1  0  0  0  0
  1 30  1  0  0  0  0
  1 31  1  0  0  0  0
  1 32  1  0  0  0  0
  2  3  1  0  0  0  0
  3  4  2  0  0  0  0
  3 29  1  0  0  0  0
  4  5  1  0  0  0  0
  4 33  1  0  0  0  0
  5  6  2  0  0  0  0
  5 34  1  0  0  0  0
  6  7  1  0  0  0  0
  6 28  1  0  0  0  0
  7  8  1  0  0  0  0
  7  9  2  0  0  0  0
  8 35  1  0  0  0  0
  9 10  1  0  0  0  0
  9 26  1  0  0  0  0
 10 11  2  0  0  0  0
 10 12  1  0  0  0  0
 12 13  1  0  0  0  0
 12 36  1  0  0  0  0
 13 14  1  0  0  0  0
 13 37  1  0  0  0  0
 13 38  1  0  0  0  0
 14 15  2  0  0  0  0
 14 25  1  0  0  0  0
 15 16  1  0  0  0  0
 15 39  1  0  0  0  0
 16 17  2  0  0  0  0
 16 40  1  0  0  0  0
 17 18  1  0  0  0  0
 17 41  1  0  0  0  0
 18 19  1  0  0  0  0
 18 25  2  0  0  0  0
 19 20  2  0  0  0  0
 19 24  1  0  0  0  0
 20 21  1  0  0  0  0
 20 42  1  0  0  0  0
 21 22  2  0  0  0  0
 21 43  1  0  0  0  0
 22 23  1  0  0  0  0
 22 44  1  0  0  0  0
 23 24  2  0  0  0  0
 23 45  1  0  0  0  0
 25 46  1  0  0  0  0
 26 27  2  0  0  0  0
 26 47  1  0  0  0  0
 27 28  1  0  0  0  0
 28 29  2  0  0  0  0
 29 48  1  0  0  0  0
M  END
$$$$
