
 OpenBabel01122422413D

 48 51  0  0  0  0  0  0  0  0999 V2000
    7.2585   -0.7376   -3.5257 C   0  0  0  0  0  0  0  0  0  0  0  0
    6.5471   -1.9300   -3.8649 O   0  0  0  0  0  0  0  0  0  0  0  0
    6.2151   -2.0253   -5.1696 C   0  0  0  0  0  0  0  0  0  0  0  0
    6.5268   -1.2048   -6.0366 O   0  0  0  0  0  0  0  0  0  0  0  0
    5.5445   -3.2733   -5.4949 C   0  0  0  0  0  0  0  0  0  0  0  0
    5.6366   -3.9428   -6.7006 C   0  0  0  0  0  0  0  0  0  0  0  0
    4.9320   -5.0959   -6.5520 N   0  0  0  0  0  0  0  0  0  0  0  0
    4.3702   -5.2301   -5.3398 N   0  0  0  0  0  0  0  0  0  0  0  0
    4.6895   -4.0822   -4.6966 C   0  0  0  0  0  0  0  0  0  0  0  0
    4.1644   -3.7823   -3.3557 C   0  0  0  0  0  0  0  0  0  0  0  0
    4.1321   -2.6475   -2.8760 O   0  0  0  0  0  0  0  0  0  0  0  0
    3.7047   -4.8870   -2.6975 N   0  0  0  0  0  0  0  0  0  0  0  0
    3.1670   -4.8329   -1.3686 C   0  0  0  0  0  0  0  0  0  0  0  0
    1.6630   -4.8788   -1.3772 C   0  0  0  0  0  0  0  0  0  0  0  0
    1.0084   -6.1051   -1.3967 C   0  0  0  0  0  0  0  0  0  0  0  0
   -0.3793   -6.1493   -1.3387 C   0  0  0  0  0  0  0  0  0  0  0  0
   -1.1754   -4.9874   -1.2118 C   0  0  0  0  0  0  0  0  0  0  0  0
   -2.6356   -5.1420   -0.9855 C   0  0  0  0  0  0  0  0  0  0  0  0
   -3.0796   -6.3160   -0.3480 C   0  0  0  0  0  0  0  0  0  0  0  0
   -4.4142   -6.6824   -0.3354 C   0  0  0  0  0  0  0  0  0  0  0  0
   -5.3786   -5.7873   -0.7771 C   0  0  0  0  0  0  0  0  0  0  0  0
   -6.7146   -6.1668   -0.7663 C   0  0  0  0  0  0  0  0  0  0  0  0
   -7.6931   -5.1951   -0.6532 C   0  0  0  0  0  0  0  0  0  0  0  0
   -7.3507   -3.8623   -0.8506 C   0  0  0  0  0  0  0  0  0  0  0  0
   -6.0400   -3.5232   -1.2184 C   0  0  0  0  0  0  0  0  0  0  0  0
   -5.0043   -4.4777   -1.1360 C   0  0  0  0  0  0  0  0  0  0  0  0
   -3.6244   -4.2072   -1.3488 C   0  0  0  0  0  0  0  0  0  0  0  0
   -0.5084   -3.7580   -1.2757 C   0  0  0  0  0  0  0  0  0  0  0  0
    0.8944   -3.7046   -1.3664 C   0  0  0  0  0  0  0  0  0  0  0  0
    7.5110   -0.7813   -2.4624 H   0  0  0  0  0  0  0  0  0  0  0  0
    6.6357    0.1459   -3.6990 H   0  0  0  0  0  0  0  0  0  0  0  0
    8.1895   -0.6753   -4.0971 H   0  0  0  0  0  0  0  0  0  0  0  0
    6.1615   -3.7046   -7.6135 H   0  0  0  0  0  0  0  0  0  0  0  0
    4.8067   -5.8399   -7.2318 H   0  0  0  0  0  0  0  0  0  0  0  0
    3.6387   -5.7483   -3.2521 H   0  0  0  0  0  0  0  0  0  0  0  0
    3.5218   -3.9537   -0.8420 H   0  0  0  0  0  0  0  0  0  0  0  0
    3.5568   -5.7099   -0.8278 H   0  0  0  0  0  0  0  0  0  0  0  0
    1.5656   -7.0383   -1.4321 H   0  0  0  0  0  0  0  0  0  0  0  0
   -0.8405   -7.1347   -1.3700 H   0  0  0  0  0  0  0  0  0  0  0  0
   -2.3725   -6.9849    0.1381 H   0  0  0  0  0  0  0  0  0  0  0  0
   -4.6980   -7.6286    0.1165 H   0  0  0  0  0  0  0  0  0  0  0  0
   -6.9888   -7.2173   -0.8167 H   0  0  0  0  0  0  0  0  0  0  0  0
   -8.7102   -5.4857   -0.4060 H   0  0  0  0  0  0  0  0  0  0  0  0
   -8.1141   -3.0965   -0.7509 H   0  0  0  0  0  0  0  0  0  0  0  0
   -5.8227   -2.4928   -1.4872 H   0  0  0  0  0  0  0  0  0  0  0  0
   -3.3411   -3.2538   -1.7905 H   0  0  0  0  0  0  0  0  0  0  0  0
   -1.0573   -2.8211   -1.2233 H   0  0  0  0  0  0  0  0  0  0  0  0
    1.3907   -2.7358   -1.4017 H   0  0  0  0  0  0  0  0  0  0  0  0
  1  2  1  0  0  0  0
  1 30  1  0  0  0  0
  1 31  1  0  0  0  0
  1 32  1  0  0  0  0
  2  3  1  0  0  0  0
  3  4  2  0  0  0  0
  3  5  1  0  0  0  0
  5  6  2  0  0  0  0
  5  9  1  0  0  0  0
  6  7  1  0  0  0  0
  6 33  1  0  0  0  0
  7  8  1  0  0  0  0
  7 34  1  0  0  0  0
  8  9  2  0  0  0  0
  9 10  1  0  0  0  0
 10 11  2  0  0  0  0
 10 12  1  0  0  0  0
 12 13  1  0  0  0  0
 12 35  1  0  0  0  0
 13 14  1  0  0  0  0
 13 36  1  0  0  0  0
 13 37  1  0  0  0  0
 14 15  2  0  0  0  0
 14 29  1  0  0  0  0
 15 16  1  0  0  0  0
 15 38  1  0  0  0  0
 16 17  2  0  0  0  0
 16 39  1  0  0  0  0
 17 18  1  0  0  0  0
 17 28  1  0  0  0  0
 18 19  2  0  0  0  0
 18 27  1  0  0  0  0
 19 20  1  0  0  0  0
 19 40  1  0  0  0  0
 20 21  2  0  0  0  0
 20 41  1  0  0  0  0
 21 22  1  0  0  0  0
 21 26  1  0  0  0  0
 22 23  2  0  0  0  0
 22 42  1  0  0  0  0
 23 24  1  0  0  0  0
 23 43  1  0  0  0  0
 24 25  2  0  0  0  0
 24 44  1  0  0  0  0
 25 26  1  0  0  0  0
 25 45  1  0  0  0  0
 26 27  2  0  0  0  0
 27 46  1  0  0  0  0
 28 29  2  0  0  0  0
 28 47  1  0  0  0  0
 29 48  1  0  0  0  0
M  END
$$$$
