
 OpenBabel01122422413D

 42 45  0  0  0  0  0  0  0  0999 V2000
    1.1038    0.2937   -0.1548 O   0  0  0  0  0  0  0  0  0  0  0  0
    2.3001    0.0262   -0.0526 C   0  0  0  0  0  0  0  0  0  0  0  0
    2.8827   -1.1710   -0.3918 N   0  0  0  0  0  0  0  0  0  0  0  0
    2.2023   -2.2779   -0.8493 C   0  0  0  0  0  0  0  0  0  0  0  0
    0.9402   -2.3238   -1.3741 C   0  0  0  0  0  0  0  0  0  0  0  0
    0.6462   -3.6403   -1.6348 N   0  0  0  0  0  0  0  0  0  0  0  0
   -0.5471   -4.1341   -2.1920 C   0  0  0  0  0  0  0  0  0  0  0  0
   -1.2714   -3.3539   -3.0964 C   0  0  0  0  0  0  0  0  0  0  0  0
   -0.8092   -2.1722   -3.5290 F   0  0  0  0  0  0  0  0  0  0  0  0
   -2.4700   -3.8117   -3.6391 C   0  0  0  0  0  0  0  0  0  0  0  0
   -2.9716   -5.0547   -3.2616 C   0  0  0  0  0  0  0  0  0  0  0  0
   -2.2572   -5.8396   -2.3552 C   0  0  0  0  0  0  0  0  0  0  0  0
   -1.0423   -5.3855   -1.8365 C   0  0  0  0  0  0  0  0  0  0  0  0
   -0.4335   -6.1540   -0.9234 F   0  0  0  0  0  0  0  0  0  0  0  0
    1.6758   -4.4556   -1.2892 N   0  0  0  0  0  0  0  0  0  0  0  0
    2.6298   -3.6190   -0.8694 C   0  0  0  0  0  0  0  0  0  0  0  0
    3.1077    0.9426    0.5479 N   0  0  0  0  0  0  0  0  0  0  0  0
    4.4797    0.9311    0.6809 C   0  0  0  0  0  0  0  0  0  0  0  0
    4.9827    1.7909    1.5697 N   0  0  0  0  0  0  0  0  0  0  0  0
    6.3137    1.7596    1.7377 C   0  0  0  0  0  0  0  0  0  0  0  0
    7.1539    0.9560    1.0034 C   0  0  0  0  0  0  0  0  0  0  0  0
    6.5554    0.1387    0.0656 C   0  0  0  0  0  0  0  0  0  0  0  0
    7.3124   -0.6930   -0.8897 C   0  0  0  0  0  0  0  0  0  0  0  0
    8.5441   -1.2746   -0.5613 C   0  0  0  0  0  0  0  0  0  0  0  0
    9.2178   -2.0217   -1.5165 C   0  0  0  0  0  0  0  0  0  0  0  0
    8.7608   -2.2320   -2.7658 N   0  0  0  0  0  0  0  0  0  0  0  0
    7.5711   -1.6785   -3.0756 C   0  0  0  0  0  0  0  0  0  0  0  0
    6.8252   -0.9194   -2.1878 C   0  0  0  0  0  0  0  0  0  0  0  0
    5.2115    0.0891   -0.0642 N   0  0  0  0  0  0  0  0  0  0  0  0
    3.8621   -1.2875   -0.1495 H   0  0  0  0  0  0  0  0  0  0  0  0
    0.2156   -1.5412   -1.5483 H   0  0  0  0  0  0  0  0  0  0  0  0
   -2.9983   -3.1922   -4.3579 H   0  0  0  0  0  0  0  0  0  0  0  0
   -3.9150   -5.4079   -3.6682 H   0  0  0  0  0  0  0  0  0  0  0  0
   -2.6477   -6.7999   -2.0319 H   0  0  0  0  0  0  0  0  0  0  0  0
    3.5774   -4.0325   -0.5503 H   0  0  0  0  0  0  0  0  0  0  0  0
    2.6362    1.7152    0.9890 H   0  0  0  0  0  0  0  0  0  0  0  0
    6.7011    2.4298    2.5009 H   0  0  0  0  0  0  0  0  0  0  0  0
    8.2249    1.0024    1.1459 H   0  0  0  0  0  0  0  0  0  0  0  0
    8.9829   -1.1666    0.4243 H   0  0  0  0  0  0  0  0  0  0  0  0
   10.1750   -2.4847   -1.2907 H   0  0  0  0  0  0  0  0  0  0  0  0
    7.2233   -1.8613   -4.0883 H   0  0  0  0  0  0  0  0  0  0  0  0
    5.8798   -0.4957   -2.5177 H   0  0  0  0  0  0  0  0  0  0  0  0
  1  2  2  0  0  0  0
  2  3  1  0  0  0  0
  2 17  1  0  0  0  0
  3  4  1  0  0  0  0
  3 30  1  0  0  0  0
  4  5  2  0  0  0  0
  4 16  1  0  0  0  0
  5  6  1  0  0  0  0
  5 31  1  0  0  0  0
  6  7  1  0  0  0  0
  6 15  1  0  0  0  0
  7  8  2  0  0  0  0
  7 13  1  0  0  0  0
  8  9  1  0  0  0  0
  8 10  1  0  0  0  0
 10 11  2  0  0  0  0
 10 32  1  0  0  0  0
 11 12  1  0  0  0  0
 11 33  1  0  0  0  0
 12 13  2  0  0  0  0
 12 34  1  0  0  0  0
 13 14  1  0  0  0  0
 15 16  2  0  0  0  0
 16 35  1  0  0  0  0
 17 18  1  0  0  0  0
 17 36  1  0  0  0  0
 18 19  2  0  0  0  0
 18 29  1  0  0  0  0
 19 20  1  0  0  0  0
 20 21  2  0  0  0  0
 20 37  1  0  0  0  0
 21 22  1  0  0  0  0
 21 38  1  0  0  0  0
 22 23  1  0  0  0  0
 22 29  2  0  0  0  0
 23 24  2  0  0  0  0
 23 28  1  0  0  0  0
 24 25  1  0  0  0  0
 24 39  1  0  0  0  0
 25 26  2  0  0  0  0
 25 40  1  0  0  0  0
 26 27  1  0  0  0  0
 27 28  2  0  0  0  0
 27 41  1  0  0  0  0
 28 42  1  0  0  0  0
M  END
$$$$
