
 OpenBabel01122422413D

 45 48  0  0  0  0  0  0  0  0999 V2000
    1.3841   -0.9228   -0.0279 O   0  0  0  0  0  0  0  0  0  0  0  0
    2.6160   -0.8957   -0.1004 C   0  0  0  0  0  0  0  0  0  0  0  0
    3.3432   -1.2109   -1.4106 C   0  0  0  0  0  0  0  0  0  0  0  0
    3.5405   -0.0572   -2.2069 O   0  0  0  0  0  0  0  0  0  0  0  0
    4.1987   -0.2747   -3.3887 C   0  0  0  0  0  0  0  0  0  0  0  0
    4.2201   -1.4786   -4.0957 C   0  0  0  0  0  0  0  0  0  0  0  0
    4.9132   -1.5536   -5.3003 C   0  0  0  0  0  0  0  0  0  0  0  0
    4.9250   -2.7109   -5.9784 F   0  0  0  0  0  0  0  0  0  0  0  0
    5.5855   -0.4534   -5.8161 C   0  0  0  0  0  0  0  0  0  0  0  0
    5.5571    0.7539   -5.1205 C   0  0  0  0  0  0  0  0  0  0  0  0
    4.8582    0.8414   -3.9127 C   0  0  0  0  0  0  0  0  0  0  0  0
    3.3286   -0.7470    1.0555 N   0  0  0  0  0  0  0  0  0  0  0  0
    4.6892   -0.6107    1.0988 C   0  0  0  0  0  0  0  0  0  0  0  0
    5.3742    0.2334    0.3689 N   0  0  0  0  0  0  0  0  0  0  0  0
    6.6438    0.1823    0.9010 C   0  0  0  0  0  0  0  0  0  0  0  0
    7.7008    1.0946    0.4336 C   0  0  0  0  0  0  0  0  0  0  0  0
    7.3876    2.1068   -0.4758 C   0  0  0  0  0  0  0  0  0  0  0  0
    8.4012    2.9436   -0.9364 C   0  0  0  0  0  0  0  0  0  0  0  0
    9.6964    2.7541   -0.4745 C   0  0  0  0  0  0  0  0  0  0  0  0
    9.9236    1.7385    0.4411 C   0  0  0  0  0  0  0  0  0  0  0  0
    8.9621    0.9096    0.9048 N   0  0  0  0  0  0  0  0  0  0  0  0
    6.7849   -0.7489    1.8590 N   0  0  0  0  0  0  0  0  0  0  0  0
    5.5549   -1.3187    1.9272 N   0  0  0  0  0  0  0  0  0  0  0  0
    5.3446   -2.5423    2.6369 C   0  0  0  0  0  0  0  0  0  0  0  0
    6.4273   -3.1322    3.3101 C   0  0  0  0  0  0  0  0  0  0  0  0
    6.2723   -4.3546    3.9700 C   0  0  0  0  0  0  0  0  0  0  0  0
    5.0384   -5.0012    3.9717 C   0  0  0  0  0  0  0  0  0  0  0  0
    3.9625   -4.4361    3.3001 C   0  0  0  0  0  0  0  0  0  0  0  0
    4.1144   -3.2184    2.6254 C   0  0  0  0  0  0  0  0  0  0  0  0
    2.6976   -1.9353   -1.9235 H   0  0  0  0  0  0  0  0  0  0  0  0
    4.2965   -1.7141   -1.2049 H   0  0  0  0  0  0  0  0  0  0  0  0
    3.6997   -2.3678   -3.7620 H   0  0  0  0  0  0  0  0  0  0  0  0
    6.1176   -0.5417   -6.7571 H   0  0  0  0  0  0  0  0  0  0  0  0
    6.0754    1.6226   -5.5143 H   0  0  0  0  0  0  0  0  0  0  0  0
    4.8347    1.7821   -3.3700 H   0  0  0  0  0  0  0  0  0  0  0  0
    2.8004   -0.7943    1.9167 H   0  0  0  0  0  0  0  0  0  0  0  0
    6.3686    2.2423   -0.8264 H   0  0  0  0  0  0  0  0  0  0  0  0
    8.1792    3.7308   -1.6510 H   0  0  0  0  0  0  0  0  0  0  0  0
   10.5113    3.3806   -0.8198 H   0  0  0  0  0  0  0  0  0  0  0  0
   10.9195    1.5564    0.8356 H   0  0  0  0  0  0  0  0  0  0  0  0
    7.4116   -2.6643    3.3125 H   0  0  0  0  0  0  0  0  0  0  0  0
    7.1202   -4.8099    4.4748 H   0  0  0  0  0  0  0  0  0  0  0  0
    4.9173   -5.9511    4.4849 H   0  0  0  0  0  0  0  0  0  0  0  0
    3.0007   -4.9433    3.2840 H   0  0  0  0  0  0  0  0  0  0  0  0
    3.2413   -2.8684    2.0907 H   0  0  0  0  0  0  0  0  0  0  0  0
  1  2  2  0  0  0  0
  2  3  1  0  0  0  0
  2 12  1  0  0  0  0
  3  4  1  0  0  0  0
  3 30  1  0  0  0  0
  3 31  1  0  0  0  0
  4  5  1  0  0  0  0
  5  6  2  0  0  0  0
  5 11  1  0  0  0  0
  6  7  1  0  0  0  0
  6 32  1  0  0  0  0
  7  8  1  0  0  0  0
  7  9  2  0  0  0  0
  9 10  1  0  0  0  0
  9 33  1  0  0  0  0
 10 11  2  0  0  0  0
 10 34  1  0  0  0  0
 11 35  1  0  0  0  0
 12 13  1  0  0  0  0
 12 36  1  0  0  0  0
 13 14  2  0  0  0  0
 13 23  1  0  0  0  0
 14 15  1  0  0  0  0
 15 16  1  0  0  0  0
 15 22  2  0  0  0  0
 16 17  2  0  0  0  0
 16 21  1  0  0  0  0
 17 18  1  0  0  0  0
 17 37  1  0  0  0  0
 18 19  2  0  0  0  0
 18 38  1  0  0  0  0
 19 20  1  0  0  0  0
 19 39  1  0  0  0  0
 20 21  2  0  0  0  0
 20 40  1  0  0  0  0
 22 23  1  0  0  0  0
 23 24  1  0  0  0  0
 24 25  2  0  0  0  0
 24 29  1  0  0  0  0
 25 26  1  0  0  0  0
 25 41  1  0  0  0  0
 26 27  2  0  0  0  0
 26 42  1  0  0  0  0
 27 28  1  0  0  0  0
 27 43  1  0  0  0  0
 28 29  2  0  0  0  0
 28 44  1  0  0  0  0
 29 45  1  0  0  0  0
M  END
$$$$
