
 OpenBabel01122422413D

 46 49  0  0  0  0  0  0  0  0999 V2000
    3.2741    1.3274   -0.6532 C   0  0  0  0  0  0  0  0  0  0  0  0
    2.5818    0.0581   -0.2480 C   0  0  0  0  0  0  0  0  0  0  0  0
    1.2264    0.0990    0.1131 C   0  0  0  0  0  0  0  0  0  0  0  0
    0.5703    1.2686    0.1113 F   0  0  0  0  0  0  0  0  0  0  0  0
    0.5270   -1.0456    0.4866 C   0  0  0  0  0  0  0  0  0  0  0  0
    1.1746   -2.2752    0.4926 C   0  0  0  0  0  0  0  0  0  0  0  0
    2.5263   -2.3409    0.1377 C   0  0  0  0  0  0  0  0  0  0  0  0
    3.2468   -1.1818   -0.2281 C   0  0  0  0  0  0  0  0  0  0  0  0
    4.6188   -1.2967   -0.5092 N   0  0  0  0  0  0  0  0  0  0  0  0
    5.2629   -2.5059   -0.4281 C   0  0  0  0  0  0  0  0  0  0  0  0
    4.6827   -3.6802   -0.1291 C   0  0  0  0  0  0  0  0  0  0  0  0
    5.5207   -4.9123   -0.1005 C   0  0  0  0  0  0  0  0  0  0  0  0
    6.7458   -4.8559   -0.0430 O   0  0  0  0  0  0  0  0  0  0  0  0
    4.8254   -6.0936   -0.1589 N   0  0  0  0  0  0  0  0  0  0  0  0
    5.4750   -7.3776   -0.0331 C   0  0  0  0  0  0  0  0  0  0  0  0
    4.7908   -8.4330   -0.8536 C   0  0  0  0  0  0  0  0  0  0  0  0
    4.2990   -9.5921   -0.2700 C   0  0  0  0  0  0  0  0  0  0  0  0
    3.7059  -10.5888   -0.9596 N   0  0  0  0  0  0  0  0  0  0  0  0
    3.5947  -10.4200   -2.3007 C   0  0  0  0  0  0  0  0  0  0  0  0
    4.0511   -9.3103   -3.0166 C   0  0  0  0  0  0  0  0  0  0  0  0
    3.8832   -9.1987   -4.4791 C   0  0  0  0  0  0  0  0  0  0  0  0
    3.9254  -10.3154   -5.3288 C   0  0  0  0  0  0  0  0  0  0  0  0
    3.7217  -10.1769   -6.7024 C   0  0  0  0  0  0  0  0  0  0  0  0
    3.4919   -8.9111   -7.2079 C   0  0  0  0  0  0  0  0  0  0  0  0
    3.4575   -7.8021   -6.4442 N   0  0  0  0  0  0  0  0  0  0  0  0
    3.6490   -7.9740   -5.1114 C   0  0  0  0  0  0  0  0  0  0  0  0
    4.6652   -8.3092   -2.2469 C   0  0  0  0  0  0  0  0  0  0  0  0
    3.2206   -3.6566    0.1371 C   0  0  0  0  0  0  0  0  0  0  0  0
    2.5918   -4.6923    0.3467 O   0  0  0  0  0  0  0  0  0  0  0  0
    2.6112    2.1963   -0.5831 H   0  0  0  0  0  0  0  0  0  0  0  0
    3.6113    1.2570   -1.6927 H   0  0  0  0  0  0  0  0  0  0  0  0
    4.1331    1.5192   -0.0028 H   0  0  0  0  0  0  0  0  0  0  0  0
   -0.5181   -0.9678    0.7707 H   0  0  0  0  0  0  0  0  0  0  0  0
    0.6338   -3.1741    0.7794 H   0  0  0  0  0  0  0  0  0  0  0  0
    5.1338   -0.4956   -0.8519 H   0  0  0  0  0  0  0  0  0  0  0  0
    6.3273   -2.4399   -0.6440 H   0  0  0  0  0  0  0  0  0  0  0  0
    3.8098   -6.0556   -0.0622 H   0  0  0  0  0  0  0  0  0  0  0  0
    5.4545   -7.6352    1.0321 H   0  0  0  0  0  0  0  0  0  0  0  0
    6.5267   -7.3087   -0.3316 H   0  0  0  0  0  0  0  0  0  0  0  0
    4.3709   -9.7662    0.8006 H   0  0  0  0  0  0  0  0  0  0  0  0
    3.0902  -11.2449   -2.7984 H   0  0  0  0  0  0  0  0  0  0  0  0
    4.1237  -11.3101   -4.9361 H   0  0  0  0  0  0  0  0  0  0  0  0
    3.7421  -11.0392   -7.3597 H   0  0  0  0  0  0  0  0  0  0  0  0
    3.3236   -8.7514   -8.2689 H   0  0  0  0  0  0  0  0  0  0  0  0
    3.5877   -7.0483   -4.5444 H   0  0  0  0  0  0  0  0  0  0  0  0
    5.0702   -7.4183   -2.7245 H   0  0  0  0  0  0  0  0  0  0  0  0
  1  2  1  0  0  0  0
  1 30  1  0  0  0  0
  1 31  1  0  0  0  0
  1 32  1  0  0  0  0
  2  3  2  0  0  0  0
  2  8  1  0  0  0  0
  3  4  1  0  0  0  0
  3  5  1  0  0  0  0
  5  6  2  0  0  0  0
  5 33  1  0  0  0  0
  6  7  1  0  0  0  0
  6 34  1  0  0  0  0
  7  8  2  0  0  0  0
  7 28  1  0  0  0  0
  8  9  1  0  0  0  0
  9 10  1  0  0  0  0
  9 35  1  0  0  0  0
 10 11  2  0  0  0  0
 10 36  1  0  0  0  0
 11 12  1  0  0  0  0
 11 28  1  0  0  0  0
 12 13  2  0  0  0  0
 12 14  1  0  0  0  0
 14 15  1  0  0  0  0
 14 37  1  0  0  0  0
 15 16  1  0  0  0  0
 15 38  1  0  0  0  0
 15 39  1  0  0  0  0
 16 17  2  0  0  0  0
 16 27  1  0  0  0  0
 17 18  1  0  0  0  0
 17 40  1  0  0  0  0
 18 19  2  0  0  0  0
 19 20  1  0  0  0  0
 19 41  1  0  0  0  0
 20 21  1  0  0  0  0
 20 27  2  0  0  0  0
 21 22  2  0  0  0  0
 21 26  1  0  0  0  0
 22 23  1  0  0  0  0
 22 42  1  0  0  0  0
 23 24  2  0  0  0  0
 23 43  1  0  0  0  0
 24 25  1  0  0  0  0
 24 44  1  0  0  0  0
 25 26  2  0  0  0  0
 26 45  1  0  0  0  0
 27 46  1  0  0  0  0
 28 29  2  0  0  0  0
M  END
$$$$
