
 OpenBabel01122422413D

 50 53  0  0  0  0  0  0  0  0999 V2000
   12.8946   12.0692    3.8306 N   0  0  0  0  0  0  0  0  0  0  0  0
   12.5197   10.9814    3.9705 C   0  0  0  0  0  0  0  0  0  0  0  0
   12.0106    9.6745    4.2037 C   0  0  0  0  0  0  0  0  0  0  0  0
   12.2892    8.5121    3.5229 C   0  0  0  0  0  0  0  0  0  0  0  0
   11.6078    7.5244    4.1810 N   0  0  0  0  0  0  0  0  0  0  0  0
   11.6810    6.0971    3.9334 C   0  0  0  0  0  0  0  0  0  0  0  0
   10.3129    5.4616    3.6788 C   0  0  0  0  0  0  0  0  0  0  0  0
    9.6332    5.9547    2.4912 N   0  0  0  0  0  0  0  0  0  0  0  0
   10.1489    5.7528    1.2291 C   0  0  0  0  0  0  0  0  0  0  0  0
   11.1660    5.0871    1.0437 O   0  0  0  0  0  0  0  0  0  0  0  0
    9.3239    6.2983    0.0786 C   0  0  0  0  0  0  0  0  0  0  0  0
    8.8405    8.0339    0.2786 S   0  0  0  0  0  0  0  0  0  0  0  0
   10.3507    8.8952    0.1927 C   0  0  0  0  0  0  0  0  0  0  0  0
   11.5072    8.2893    0.0899 N   0  0  0  0  0  0  0  0  0  0  0  0
   12.4712    9.2403   -0.0272 N   0  0  0  0  0  0  0  0  0  0  0  0
   11.9147   10.4412    0.0258 C   0  0  0  0  0  0  0  0  0  0  0  0
   12.7364   11.6694    0.0727 C   0  0  0  0  0  0  0  0  0  0  0  0
   13.9814   11.6754   -0.5864 C   0  0  0  0  0  0  0  0  0  0  0  0
   14.8322   12.7851   -0.5243 C   0  0  0  0  0  0  0  0  0  0  0  0
   14.4455   13.9035    0.1992 C   0  0  0  0  0  0  0  0  0  0  0  0
   15.2592   14.9652    0.2663 F   0  0  0  0  0  0  0  0  0  0  0  0
   13.2309   13.9256    0.8679 C   0  0  0  0  0  0  0  0  0  0  0  0
   12.3894   12.8073    0.8175 C   0  0  0  0  0  0  0  0  0  0  0  0
   10.5166   10.2820    0.1049 N   0  0  0  0  0  0  0  0  0  0  0  0
    9.5096   11.3022    0.0626 C   0  0  0  0  0  0  0  0  0  0  0  0
    9.7153   12.4732   -0.6833 C   0  0  0  0  0  0  0  0  0  0  0  0
    8.7637   13.4983   -0.6814 C   0  0  0  0  0  0  0  0  0  0  0  0
    7.5702   13.3445    0.0161 C   0  0  0  0  0  0  0  0  0  0  0  0
    7.3355   12.1737    0.7283 C   0  0  0  0  0  0  0  0  0  0  0  0
    8.3063   11.1680    0.7695 C   0  0  0  0  0  0  0  0  0  0  0  0
   10.8691    7.9860    5.2148 N   0  0  0  0  0  0  0  0  0  0  0  0
   11.1209    9.2973    5.2212 C   0  0  0  0  0  0  0  0  0  0  0  0
   12.9139    8.2967    2.6641 H   0  0  0  0  0  0  0  0  0  0  0  0
   12.1377    5.6534    4.8257 H   0  0  0  0  0  0  0  0  0  0  0  0
   12.3696    5.9367    3.0982 H   0  0  0  0  0  0  0  0  0  0  0  0
    9.6379    5.6230    4.5256 H   0  0  0  0  0  0  0  0  0  0  0  0
   10.4403    4.3792    3.5581 H   0  0  0  0  0  0  0  0  0  0  0  0
    8.7554    6.4484    2.6017 H   0  0  0  0  0  0  0  0  0  0  0  0
    8.4090    5.6971    0.0242 H   0  0  0  0  0  0  0  0  0  0  0  0
    9.8678    6.1621   -0.8601 H   0  0  0  0  0  0  0  0  0  0  0  0
   14.3105   10.7965   -1.1400 H   0  0  0  0  0  0  0  0  0  0  0  0
   15.7973   12.7741   -1.0210 H   0  0  0  0  0  0  0  0  0  0  0  0
   12.9555   14.7966    1.4548 H   0  0  0  0  0  0  0  0  0  0  0  0
   11.4760   12.8408    1.4065 H   0  0  0  0  0  0  0  0  0  0  0  0
   10.6068   12.6223   -1.2882 H   0  0  0  0  0  0  0  0  0  0  0  0
    8.9550   14.4172   -1.2311 H   0  0  0  0  0  0  0  0  0  0  0  0
    6.8245   14.1354    0.0058 H   0  0  0  0  0  0  0  0  0  0  0  0
    6.4007   12.0460    1.2695 H   0  0  0  0  0  0  0  0  0  0  0  0
    8.0951   10.3156    1.4064 H   0  0  0  0  0  0  0  0  0  0  0  0
   10.6575    9.9205    5.9753 H   0  0  0  0  0  0  0  0  0  0  0  0
  1  2  3  0  0  0  0
  2  3  1  0  0  0  0
  3  4  2  0  0  0  0
  3 32  1  0  0  0  0
  4  5  1  0  0  0  0
  4 33  1  0  0  0  0
  5  6  1  0  0  0  0
  5 31  1  0  0  0  0
  6  7  1  0  0  0  0
  6 34  1  0  0  0  0
  6 35  1  0  0  0  0
  7  8  1  0  0  0  0
  7 36  1  0  0  0  0
  7 37  1  0  0  0  0
  8  9  1  0  0  0  0
  8 38  1  0  0  0  0
  9 10  2  0  0  0  0
  9 11  1  0  0  0  0
 11 12  1  0  0  0  0
 11 39  1  0  0  0  0
 11 40  1  0  0  0  0
 12 13  1  0  0  0  0
 13 14  2  0  0  0  0
 13 24  1  0  0  0  0
 14 15  1  0  0  0  0
 15 16  2  0  0  0  0
 16 17  1  0  0  0  0
 16 24  1  0  0  0  0
 17 18  2  0  0  0  0
 17 23  1  0  0  0  0
 18 19  1  0  0  0  0
 18 41  1  0  0  0  0
 19 20  2  0  0  0  0
 19 42  1  0  0  0  0
 20 21  1  0  0  0  0
 20 22  1  0  0  0  0
 22 23  2  0  0  0  0
 22 43  1  0  0  0  0
 23 44  1  0  0  0  0
 24 25  1  0  0  0  0
 25 26  2  0  0  0  0
 25 30  1  0  0  0  0
 26 27  1  0  0  0  0
 26 45  1  0  0  0  0
 27 28  2  0  0  0  0
 27 46  1  0  0  0  0
 28 29  1  0  0  0  0
 28 47  1  0  0  0  0
 29 30  2  0  0  0  0
 29 48  1  0  0  0  0
 30 49  1  0  0  0  0
 31 32  2  0  0  0  0
 32 50  1  0  0  0  0
M  END
$$$$
