
 OpenBabel01122422413D

 40 43  0  0  0  0  0  0  0  0999 V2000
    2.1462   -0.2091   -1.1849 O   0  0  0  0  0  0  0  0  0  0  0  0
    2.0795    0.1062    0.0024 C   0  0  0  0  0  0  0  0  0  0  0  0
    1.1748   -0.4454    0.8881 N   0  0  0  0  0  0  0  0  0  0  0  0
    0.3129   -1.4894    0.6077 C   0  0  0  0  0  0  0  0  0  0  0  0
    0.4847   -2.3817   -0.3843 C   0  0  0  0  0  0  0  0  0  0  0  0
   -0.4637   -3.4495   -0.6519 C   0  0  0  0  0  0  0  0  0  0  0  0
   -0.1932   -4.3992   -1.7870 C   0  0  0  0  0  0  0  0  0  0  0  0
    0.9610   -4.1377   -2.4513 F   0  0  0  0  0  0  0  0  0  0  0  0
   -0.1038   -5.6813   -1.3460 F   0  0  0  0  0  0  0  0  0  0  0  0
   -1.1902   -4.3742   -2.7085 F   0  0  0  0  0  0  0  0  0  0  0  0
   -1.5522   -3.5470    0.1270 C   0  0  0  0  0  0  0  0  0  0  0  0
   -1.7627   -2.6644    1.1570 N   0  0  0  0  0  0  0  0  0  0  0  0
   -0.9081   -1.6325    1.4794 C   0  0  0  0  0  0  0  0  0  0  0  0
   -1.1310   -0.8581    2.4056 O   0  0  0  0  0  0  0  0  0  0  0  0
    2.8931    1.1715    0.5649 C   0  0  0  0  0  0  0  0  0  0  0  0
    4.0411    1.7079    0.0084 C   0  0  0  0  0  0  0  0  0  0  0  0
    4.8907    1.4013   -1.1297 C   0  0  0  0  0  0  0  0  0  0  0  0
    5.6095    2.3799   -1.7984 C   0  0  0  0  0  0  0  0  0  0  0  0
    6.4459    1.9923   -2.8404 C   0  0  0  0  0  0  0  0  0  0  0  0
    6.5368    0.6413   -3.1944 C   0  0  0  0  0  0  0  0  0  0  0  0
    7.3819    0.2027   -4.2291 C   0  0  0  0  0  0  0  0  0  0  0  0
    7.4406   -1.1479   -4.5661 C   0  0  0  0  0  0  0  0  0  0  0  0
    6.6465   -2.0608   -3.8817 C   0  0  0  0  0  0  0  0  0  0  0  0
    5.8125   -1.6209   -2.8484 C   0  0  0  0  0  0  0  0  0  0  0  0
    5.7516   -0.2834   -2.4760 C   0  0  0  0  0  0  0  0  0  0  0  0
    4.9648    0.0885   -1.4504 N   0  0  0  0  0  0  0  0  0  0  0  0
    4.4334    2.7536    0.8078 O   0  0  0  0  0  0  0  0  0  0  0  0
    3.5245    2.7618    1.8187 C   0  0  0  0  0  0  0  0  0  0  0  0
    2.5918    1.8398    1.7470 N   0  0  0  0  0  0  0  0  0  0  0  0
    1.0229    0.0567    1.7622 H   0  0  0  0  0  0  0  0  0  0  0  0
    1.3628   -2.3459   -1.0240 H   0  0  0  0  0  0  0  0  0  0  0  0
   -2.3078   -4.3161   -0.0158 H   0  0  0  0  0  0  0  0  0  0  0  0
   -2.5933   -2.7407    1.7330 H   0  0  0  0  0  0  0  0  0  0  0  0
    5.5292    3.4245   -1.5176 H   0  0  0  0  0  0  0  0  0  0  0  0
    7.0231    2.7456   -3.3700 H   0  0  0  0  0  0  0  0  0  0  0  0
    8.0014    0.9116   -4.7734 H   0  0  0  0  0  0  0  0  0  0  0  0
    8.0998   -1.4849   -5.3620 H   0  0  0  0  0  0  0  0  0  0  0  0
    6.6734   -3.1153   -4.1446 H   0  0  0  0  0  0  0  0  0  0  0  0
    5.1911   -2.3406   -2.3201 H   0  0  0  0  0  0  0  0  0  0  0  0
    3.6571    3.5244    2.5752 H   0  0  0  0  0  0  0  0  0  0  0  0
  1  2  2  0  0  0  0
  2  3  1  0  0  0  0
  2 15  1  0  0  0  0
  3  4  1  0  0  0  0
  3 30  1  0  0  0  0
  4  5  2  0  0  0  0
  4 13  1  0  0  0  0
  5  6  1  0  0  0  0
  5 31  1  0  0  0  0
  6  7  1  0  0  0  0
  6 11  2  0  0  0  0
  7  8  1  0  0  0  0
  7  9  1  0  0  0  0
  7 10  1  0  0  0  0
 11 12  1  0  0  0  0
 11 32  1  0  0  0  0
 12 13  1  0  0  0  0
 12 33  1  0  0  0  0
 13 14  2  0  0  0  0
 15 16  2  0  0  0  0
 15 29  1  0  0  0  0
 16 17  1  0  0  0  0
 16 27  1  0  0  0  0
 17 18  2  0  0  0  0
 17 26  1  0  0  0  0
 18 19  1  0  0  0  0
 18 34  1  0  0  0  0
 19 20  2  0  0  0  0
 19 35  1  0  0  0  0
 20 21  1  0  0  0  0
 20 25  1  0  0  0  0
 21 22  2  0  0  0  0
 21 36  1  0  0  0  0
 22 23  1  0  0  0  0
 22 37  1  0  0  0  0
 23 24  2  0  0  0  0
 23 38  1  0  0  0  0
 24 25  1  0  0  0  0
 24 39  1  0  0  0  0
 25 26  2  0  0  0  0
 27 28  1  0  0  0  0
 28 29  2  0  0  0  0
 28 40  1  0  0  0  0
M  END
$$$$
