
 OpenBabel01122422413D

 53 56  0  0  0  0  0  0  0  0999 V2000
    5.8455    1.3506   -1.7532 C   0  0  0  0  0  0  0  0  0  0  0  0
    4.6448    0.7253   -1.1563 C   0  0  0  0  0  0  0  0  0  0  0  0
    4.4832   -0.5961   -1.2330 N   0  0  0  0  0  0  0  0  0  0  0  0
    3.2834   -0.7941   -0.6343 N   0  0  0  0  0  0  0  0  0  0  0  0
    2.7376   -2.0998   -0.5197 C   0  0  0  0  0  0  0  0  0  0  0  0
    3.5144   -3.2080   -0.9005 C   0  0  0  0  0  0  0  0  0  0  0  0
    2.9969   -4.4987   -0.7974 C   0  0  0  0  0  0  0  0  0  0  0  0
    1.6982   -4.6898   -0.3312 C   0  0  0  0  0  0  0  0  0  0  0  0
    0.9189   -3.5910    0.0433 C   0  0  0  0  0  0  0  0  0  0  0  0
    1.4376   -2.2959   -0.0405 C   0  0  0  0  0  0  0  0  0  0  0  0
    2.6648    0.3272   -0.1577 N   0  0  0  0  0  0  0  0  0  0  0  0
    3.5545    1.2951   -0.4552 C   0  0  0  0  0  0  0  0  0  0  0  0
    3.3691    2.7183   -0.0343 C   0  0  0  0  0  0  0  0  0  0  0  0
    1.9687    3.0922   -0.0460 N   0  0  0  0  0  0  0  0  0  0  0  0
    1.5830    4.4101   -0.1250 C   0  0  0  0  0  0  0  0  0  0  0  0
    2.3853    5.3308   -0.2800 O   0  0  0  0  0  0  0  0  0  0  0  0
    0.1230    4.7057   -0.0365 C   0  0  0  0  0  0  0  0  0  0  0  0
   -0.7462    3.9270    0.7455 C   0  0  0  0  0  0  0  0  0  0  0  0
   -2.1147    4.2517    0.8716 C   0  0  0  0  0  0  0  0  0  0  0  0
   -3.0241    3.4660    1.7423 C   0  0  0  0  0  0  0  0  0  0  0  0
   -4.3864    3.2933    1.4232 C   0  0  0  0  0  0  0  0  0  0  0  0
   -5.2638    2.5642    2.2467 C   0  0  0  0  0  0  0  0  0  0  0  0
   -6.7065    2.3747    1.8494 C   0  0  0  0  0  0  0  0  0  0  0  0
   -7.4204    3.6418    1.7376 N   0  0  0  0  0  0  0  0  0  0  0  0
   -4.7620    1.9814    3.4143 C   0  0  0  0  0  0  0  0  0  0  0  0
   -3.4198    2.1331    3.7536 C   0  0  0  0  0  0  0  0  0  0  0  0
   -2.5666    2.8732    2.9317 C   0  0  0  0  0  0  0  0  0  0  0  0
   -2.5815    5.3722    0.1580 C   0  0  0  0  0  0  0  0  0  0  0  0
   -1.7257    6.1490   -0.6238 C   0  0  0  0  0  0  0  0  0  0  0  0
   -0.3743    5.8279   -0.7069 C   0  0  0  0  0  0  0  0  0  0  0  0
    6.4376    0.6104   -2.3053 H   0  0  0  0  0  0  0  0  0  0  0  0
    6.4876    1.7832   -0.9812 H   0  0  0  0  0  0  0  0  0  0  0  0
    5.5603    2.1346   -2.4609 H   0  0  0  0  0  0  0  0  0  0  0  0
    4.5316   -3.0802   -1.2677 H   0  0  0  0  0  0  0  0  0  0  0  0
    3.6076   -5.3519   -1.0822 H   0  0  0  0  0  0  0  0  0  0  0  0
    1.2926   -5.6961   -0.2589 H   0  0  0  0  0  0  0  0  0  0  0  0
   -0.0965   -3.7491    0.3963 H   0  0  0  0  0  0  0  0  0  0  0  0
    0.8138   -1.4542    0.2522 H   0  0  0  0  0  0  0  0  0  0  0  0
    3.9372    3.3988   -0.6769 H   0  0  0  0  0  0  0  0  0  0  0  0
    3.7318    2.8439    0.9931 H   0  0  0  0  0  0  0  0  0  0  0  0
    1.2989    2.3360    0.0434 H   0  0  0  0  0  0  0  0  0  0  0  0
   -0.3484    3.0736    1.2869 H   0  0  0  0  0  0  0  0  0  0  0  0
   -4.7932    3.7258    0.5096 H   0  0  0  0  0  0  0  0  0  0  0  0
   -7.2234    1.7409    2.5788 H   0  0  0  0  0  0  0  0  0  0  0  0
   -6.7396    1.8495    0.8886 H   0  0  0  0  0  0  0  0  0  0  0  0
   -7.4393    4.0907    2.6525 H   0  0  0  0  0  0  0  0  0  0  0  0
   -8.3909    3.4520    1.4938 H   0  0  0  0  0  0  0  0  0  0  0  0
   -5.4109    1.4017    4.0659 H   0  0  0  0  0  0  0  0  0  0  0  0
   -3.0327    1.6777    4.6615 H   0  0  0  0  0  0  0  0  0  0  0  0
   -1.5331    2.9926    3.2490 H   0  0  0  0  0  0  0  0  0  0  0  0
   -3.6275    5.6727    0.2251 H   0  0  0  0  0  0  0  0  0  0  0  0
   -2.1169    7.0156   -1.1540 H   0  0  0  0  0  0  0  0  0  0  0  0
    0.2925    6.4553   -1.2951 H   0  0  0  0  0  0  0  0  0  0  0  0
  1  2  1  0  0  0  0
  1 31  1  0  0  0  0
  1 32  1  0  0  0  0
  1 33  1  0  0  0  0
  2  3  2  0  0  0  0
  2 12  1  0  0  0  0
  3  4  1  0  0  0  0
  4  5  1  0  0  0  0
  4 11  1  0  0  0  0
  5  6  2  0  0  0  0
  5 10  1  0  0  0  0
  6  7  1  0  0  0  0
  6 34  1  0  0  0  0
  7  8  2  0  0  0  0
  7 35  1  0  0  0  0
  8  9  1  0  0  0  0
  8 36  1  0  0  0  0
  9 10  2  0  0  0  0
  9 37  1  0  0  0  0
 10 38  1  0  0  0  0
 11 12  2  0  0  0  0
 12 13  1  0  0  0  0
 13 14  1  0  0  0  0
 13 39  1  0  0  0  0
 13 40  1  0  0  0  0
 14 15  1  0  0  0  0
 14 41  1  0  0  0  0
 15 16  2  0  0  0  0
 15 17  1  0  0  0  0
 17 18  2  0  0  0  0
 17 30  1  0  0  0  0
 18 19  1  0  0  0  0
 18 42  1  0  0  0  0
 19 20  1  0  0  0  0
 19 28  2  0  0  0  0
 20 21  2  0  0  0  0
 20 27  1  0  0  0  0
 21 22  1  0  0  0  0
 21 43  1  0  0  0  0
 22 23  1  0  0  0  0
 22 25  2  0  0  0  0
 23 24  1  0  0  0  0
 23 44  1  0  0  0  0
 23 45  1  0  0  0  0
 24 46  1  0  0  0  0
 24 47  1  0  0  0  0
 25 26  1  0  0  0  0
 25 48  1  0  0  0  0
 26 27  2  0  0  0  0
 26 49  1  0  0  0  0
 27 50  1  0  0  0  0
 28 29  1  0  0  0  0
 28 51  1  0  0  0  0
 29 30  2  0  0  0  0
 29 52  1  0  0  0  0
 30 53  1  0  0  0  0
M  END
$$$$
