
 OpenBabel01122422413D

 45 47  0  0  1  0  0  0  0  0999 V2000
    1.1641    0.5622   -0.2980 O   0  0  0  0  0  0  0  0  0  0  0  0
    2.1886   -0.0068    0.0656 C   0  0  0  0  0  0  0  0  0  0  0  0
    2.6617    0.0902    1.3530 N   0  0  0  0  0  0  0  0  0  0  0  0
    2.0587    0.9833    2.3410 C   0  0  3  0  0  0  0  0  0  0  0  0
    2.2801    0.4233    3.7625 C   0  0  0  0  0  0  0  0  0  0  0  0
    1.7943   -0.9152    3.8944 O   0  0  0  0  0  0  0  0  0  0  0  0
    2.5809    2.4039    2.2596 C   0  0  0  0  0  0  0  0  0  0  0  0
    3.8854    2.7194    1.8420 C   0  0  0  0  0  0  0  0  0  0  0  0
    4.3438    4.0423    1.8674 C   0  0  0  0  0  0  0  0  0  0  0  0
    3.5081    5.0663    2.3120 C   0  0  0  0  0  0  0  0  0  0  0  0
    2.2152    4.7632    2.7199 C   0  0  0  0  0  0  0  0  0  0  0  0
    1.4188    5.7466    3.1616 F   0  0  0  0  0  0  0  0  0  0  0  0
    1.7564    3.4504    2.6952 C   0  0  0  0  0  0  0  0  0  0  0  0
    0.5165    3.1802    3.1305 F   0  0  0  0  0  0  0  0  0  0  0  0
    2.9917   -0.8123   -0.9097 C   0  0  0  0  0  0  0  0  0  0  0  0
    2.5091   -0.8537   -2.2284 C   0  0  0  0  0  0  0  0  0  0  0  0
    3.2586   -1.4459   -3.2476 C   0  0  0  0  0  0  0  0  0  0  0  0
    2.8885   -1.4695   -4.5732 O   0  0  0  0  0  0  0  0  0  0  0  0
    2.1901   -0.4153   -5.1207 C   0  0  0  0  0  0  0  0  0  0  0  0
    2.3075    0.9178   -4.7156 C   0  0  0  0  0  0  0  0  0  0  0  0
    1.5234    1.9055   -5.3150 C   0  0  0  0  0  0  0  0  0  0  0  0
    0.6661    1.5759   -6.3630 C   0  0  0  0  0  0  0  0  0  0  0  0
    0.5968    0.2598   -6.8171 C   0  0  0  0  0  0  0  0  0  0  0  0
    1.3569   -0.7337   -6.1962 C   0  0  0  0  0  0  0  0  0  0  0  0
    4.4404   -2.1154   -2.9295 C   0  0  0  0  0  0  0  0  0  0  0  0
    4.9048   -2.1410   -1.6131 C   0  0  0  0  0  0  0  0  0  0  0  0
    4.1901   -1.4770   -0.6095 C   0  0  0  0  0  0  0  0  0  0  0  0
    4.6892   -1.4891    0.6684 O   0  0  0  0  0  0  0  0  0  0  0  0
    3.5556   -0.3511    1.5605 H   0  0  0  0  0  0  0  0  0  0  0  0
    0.9814    0.9838    2.1308 H   0  0  0  0  0  0  0  0  0  0  0  0
    1.7679    1.0387    4.5098 H   0  0  0  0  0  0  0  0  0  0  0  0
    3.3465    0.4114    4.0162 H   0  0  0  0  0  0  0  0  0  0  0  0
    1.4913   -1.2021    3.0134 H   0  0  0  0  0  0  0  0  0  0  0  0
    4.5612    1.9388    1.4989 H   0  0  0  0  0  0  0  0  0  0  0  0
    5.3578    4.2720    1.5470 H   0  0  0  0  0  0  0  0  0  0  0  0
    3.8558    6.0939    2.3490 H   0  0  0  0  0  0  0  0  0  0  0  0
    1.5535   -0.3867   -2.4587 H   0  0  0  0  0  0  0  0  0  0  0  0
    2.9877    1.2081   -3.9206 H   0  0  0  0  0  0  0  0  0  0  0  0
    1.5808    2.9312   -4.9596 H   0  0  0  0  0  0  0  0  0  0  0  0
    0.0573    2.3466   -6.8288 H   0  0  0  0  0  0  0  0  0  0  0  0
   -0.0544    0.0059   -7.6493 H   0  0  0  0  0  0  0  0  0  0  0  0
    1.2936   -1.7596   -6.5490 H   0  0  0  0  0  0  0  0  0  0  0  0
    5.0050   -2.6136   -3.7151 H   0  0  0  0  0  0  0  0  0  0  0  0
    5.8307   -2.6652   -1.3981 H   0  0  0  0  0  0  0  0  0  0  0  0
    5.4260   -2.1271    0.7074 H   0  0  0  0  0  0  0  0  0  0  0  0
  1  2  2  0  0  0  0
  2  3  1  0  0  0  0
  2 15  1  0  0  0  0
  3  4  1  0  0  0  0
  3 29  1  0  0  0  0
  4  5  1  0  0  0  0
  4  7  1  0  0  0  0
  4 30  1  0  0  0  0
  5  6  1  0  0  0  0
  5 31  1  0  0  0  0
  5 32  1  0  0  0  0
  6 33  1  0  0  0  0
  7  8  2  0  0  0  0
  7 13  1  0  0  0  0
  8  9  1  0  0  0  0
  8 34  1  0  0  0  0
  9 10  2  0  0  0  0
  9 35  1  0  0  0  0
 10 11  1  0  0  0  0
 10 36  1  0  0  0  0
 11 12  1  0  0  0  0
 11 13  2  0  0  0  0
 13 14  1  0  0  0  0
 15 16  2  0  0  0  0
 15 27  1  0  0  0  0
 16 17  1  0  0  0  0
 16 37  1  0  0  0  0
 17 18  1  0  0  0  0
 17 25  2  0  0  0  0
 18 19  1  0  0  0  0
 19 20  2  0  0  0  0
 19 24  1  0  0  0  0
 20 21  1  0  0  0  0
 20 38  1  0  0  0  0
 21 22  2  0  0  0  0
 21 39  1  0  0  0  0
 22 23  1  0  0  0  0
 22 40  1  0  0  0  0
 23 24  2  0  0  0  0
 23 41  1  0  0  0  0
 24 42  1  0  0  0  0
 25 26  1  0  0  0  0
 25 43  1  0  0  0  0
 26 27  2  0  0  0  0
 26 44  1  0  0  0  0
 27 28  1  0  0  0  0
 28 45  1  0  0  0  0
M  END
$$$$
