
 OpenBabel01122422413D

 49 52  0  0  1  0  0  0  0  0999 V2000
    3.2816    1.7615    1.3541 O   0  0  0  0  0  0  0  0  0  0  0  0
    3.5517    0.7685    0.6831 C   0  0  0  0  0  0  0  0  0  0  0  0
    3.0730   -0.4832    1.0107 N   0  0  0  0  0  0  0  0  0  0  0  0
    2.3732   -0.6623    2.2913 C   0  0  3  0  0  0  0  0  0  0  0  0
    1.3800   -1.8378    2.2265 C   0  0  0  0  0  0  0  0  0  0  0  0
    0.2829   -1.7313    1.2000 C   0  0  0  0  0  0  0  0  0  0  0  0
   -0.6216   -0.6708    1.2165 C   0  0  0  0  0  0  0  0  0  0  0  0
   -1.7690   -0.7545    0.4315 C   0  0  0  0  0  0  0  0  0  0  0  0
   -1.9892   -1.8923   -0.3331 C   0  0  0  0  0  0  0  0  0  0  0  0
   -1.0142   -2.8736   -0.3366 C   0  0  0  0  0  0  0  0  0  0  0  0
    0.1142   -2.8142    0.4024 N   0  0  0  0  0  0  0  0  0  0  0  0
    3.3487   -0.8761    3.4633 C   0  0  0  0  0  0  0  0  0  0  0  0
    2.8687   -1.0526    4.7651 C   0  0  0  0  0  0  0  0  0  0  0  0
    3.7632   -1.2742    5.8073 C   0  0  0  0  0  0  0  0  0  0  0  0
    5.1345   -1.2670    5.5366 C   0  0  0  0  0  0  0  0  0  0  0  0
    5.5309   -1.0634    4.2273 C   0  0  0  0  0  0  0  0  0  0  0  0
    4.6821   -0.8903    3.1960 N   0  0  0  0  0  0  0  0  0  0  0  0
    4.4148    0.9357   -0.5350 C   0  0  0  0  0  0  0  0  0  0  0  0
    4.8843    2.2430   -0.7736 C   0  0  0  0  0  0  0  0  0  0  0  0
    5.6626    2.5408   -1.8851 C   0  0  0  0  0  0  0  0  0  0  0  0
    5.9948    1.5280   -2.7717 C   0  0  0  0  0  0  0  0  0  0  0  0
    5.5910    0.2065   -2.5293 C   0  0  0  0  0  0  0  0  0  0  0  0
    5.9489   -0.8347   -3.3700 O   0  0  0  0  0  0  0  0  0  0  0  0
    7.2288   -0.7958   -3.9156 C   0  0  0  0  0  0  0  0  0  0  0  0
    7.4700   -1.4428   -5.1176 C   0  0  0  0  0  0  0  0  0  0  0  0
    8.6920   -1.4388   -5.7172 N   0  0  0  0  0  0  0  0  0  0  0  0
    9.6566   -0.7540   -5.0581 C   0  0  0  0  0  0  0  0  0  0  0  0
    9.4174   -0.1007   -3.8642 C   0  0  0  0  0  0  0  0  0  0  0  0
    8.2132   -0.1300   -3.2599 N   0  0  0  0  0  0  0  0  0  0  0  0
    4.7581   -0.0861   -1.4352 C   0  0  0  0  0  0  0  0  0  0  0  0
    3.5192   -1.3002    0.6238 H   0  0  0  0  0  0  0  0  0  0  0  0
    1.8253    0.2620    2.5086 H   0  0  0  0  0  0  0  0  0  0  0  0
    0.8621   -1.9559    3.1889 H   0  0  0  0  0  0  0  0  0  0  0  0
    1.9292   -2.7757    2.0738 H   0  0  0  0  0  0  0  0  0  0  0  0
   -0.4764    0.1859    1.8665 H   0  0  0  0  0  0  0  0  0  0  0  0
   -2.5026    0.0465    0.4480 H   0  0  0  0  0  0  0  0  0  0  0  0
   -2.9061   -2.0214   -0.8969 H   0  0  0  0  0  0  0  0  0  0  0  0
   -1.1327   -3.7800   -0.9224 H   0  0  0  0  0  0  0  0  0  0  0  0
    1.7975   -1.0555    4.9792 H   0  0  0  0  0  0  0  0  0  0  0  0
    3.4089   -1.4334    6.8152 H   0  0  0  0  0  0  0  0  0  0  0  0
    5.8519   -1.4299    6.3236 H   0  0  0  0  0  0  0  0  0  0  0  0
    6.5886   -1.0396    3.9650 H   0  0  0  0  0  0  0  0  0  0  0  0
    4.6309    3.0478   -0.0867 H   0  0  0  0  0  0  0  0  0  0  0  0
    6.0162    3.5535   -2.0511 H   0  0  0  0  0  0  0  0  0  0  0  0
    6.6082    1.7795   -3.6331 H   0  0  0  0  0  0  0  0  0  0  0  0
    6.6924   -1.9796   -5.6500 H   0  0  0  0  0  0  0  0  0  0  0  0
   10.6414   -0.7488   -5.5117 H   0  0  0  0  0  0  0  0  0  0  0  0
   10.1837    0.4687   -3.3522 H   0  0  0  0  0  0  0  0  0  0  0  0
    4.3968   -1.1003   -1.3074 H   0  0  0  0  0  0  0  0  0  0  0  0
  1  2  2  0  0  0  0
  2  3  1  0  0  0  0
  2 18  1  0  0  0  0
  3  4  1  0  0  0  0
  3 31  1  0  0  0  0
  4  5  1  0  0  0  0
  4 12  1  0  0  0  0
  4 32  1  0  0  0  0
  5  6  1  0  0  0  0
  5 33  1  0  0  0  0
  5 34  1  0  0  0  0
  6  7  2  0  0  0  0
  6 11  1  0  0  0  0
  7  8  1  0  0  0  0
  7 35  1  0  0  0  0
  8  9  2  0  0  0  0
  8 36  1  0  0  0  0
  9 10  1  0  0  0  0
  9 37  1  0  0  0  0
 10 11  2  0  0  0  0
 10 38  1  0  0  0  0
 12 13  2  0  0  0  0
 12 17  1  0  0  0  0
 13 14  1  0  0  0  0
 13 39  1  0  0  0  0
 14 15  2  0  0  0  0
 14 40  1  0  0  0  0
 15 16  1  0  0  0  0
 15 41  1  0  0  0  0
 16 17  2  0  0  0  0
 16 42  1  0  0  0  0
 18 19  2  0  0  0  0
 18 30  1  0  0  0  0
 19 20  1  0  0  0  0
 19 43  1  0  0  0  0
 20 21  2  0  0  0  0
 20 44  1  0  0  0  0
 21 22  1  0  0  0  0
 21 45  1  0  0  0  0
 22 23  1  0  0  0  0
 22 30  2  0  0  0  0
 23 24  1  0  0  0  0
 24 25  2  0  0  0  0
 24 29  1  0  0  0  0
 25 26  1  0  0  0  0
 25 46  1  0  0  0  0
 26 27  2  0  0  0  0
 27 28  1  0  0  0  0
 27 47  1  0  0  0  0
 28 29  2  0  0  0  0
 28 48  1  0  0  0  0
 30 49  1  0  0  0  0
M  END
$$$$
