
 OpenBabel01122422413D

 53 56  0  0  0  0  0  0  0  0999 V2000
    0.9853   -0.3935    0.2279 C   0  0  0  0  0  0  0  0  0  0  0  0
    2.4280   -0.3623    0.4432 N   0  0  0  0  0  0  0  0  0  0  0  0
    3.0026    0.4985    1.4915 C   0  0  0  0  0  0  0  0  0  0  0  0
    2.0633    1.3860    2.3038 C   0  0  0  0  0  0  0  0  0  0  0  0
    2.8416    2.1174    3.2559 O   0  0  0  0  0  0  0  0  0  0  0  0
    2.1322    2.8844    4.1418 C   0  0  0  0  0  0  0  0  0  0  0  0
    0.7460    3.0480    4.1396 C   0  0  0  0  0  0  0  0  0  0  0  0
    0.1321    3.8640    5.0848 C   0  0  0  0  0  0  0  0  0  0  0  0
    0.8989    4.5242    6.0470 C   0  0  0  0  0  0  0  0  0  0  0  0
    2.2923    4.3646    6.0615 C   0  0  0  0  0  0  0  0  0  0  0  0
    3.0829    5.0421    7.0435 C   0  0  0  0  0  0  0  0  0  0  0  0
    3.7186    5.5957    7.8427 N   0  0  0  0  0  0  0  0  0  0  0  0
    2.9018    3.5408    5.1071 C   0  0  0  0  0  0  0  0  0  0  0  0
    3.1815   -1.0519   -0.5246 C   0  0  0  0  0  0  0  0  0  0  0  0
    2.6439   -1.5958   -1.4917 O   0  0  0  0  0  0  0  0  0  0  0  0
    4.6699   -1.1332   -0.4592 C   0  0  0  0  0  0  0  0  0  0  0  0
    5.3785   -1.2498    0.7403 C   0  0  0  0  0  0  0  0  0  0  0  0
    6.7711   -1.2719    0.7436 C   0  0  0  0  0  0  0  0  0  0  0  0
    7.4643   -1.2660   -0.4659 C   0  0  0  0  0  0  0  0  0  0  0  0
    8.9337   -1.3141   -0.4796 C   0  0  0  0  0  0  0  0  0  0  0  0
    9.5061   -1.3705    0.6081 O   0  0  0  0  0  0  0  0  0  0  0  0
    9.5516   -1.3408   -1.7343 N   0  0  0  0  0  0  0  0  0  0  0  0
   10.9793   -1.3731   -1.7595 C   0  0  0  0  0  0  0  0  0  0  0  0
   11.6600   -2.3629   -2.4778 C   0  0  0  0  0  0  0  0  0  0  0  0
   13.0544   -2.4269   -2.4385 C   0  0  0  0  0  0  0  0  0  0  0  0
   13.7786   -1.4809   -1.7133 C   0  0  0  0  0  0  0  0  0  0  0  0
   13.1116   -0.4770   -1.0160 C   0  0  0  0  0  0  0  0  0  0  0  0
   11.7177   -0.4325   -1.0253 C   0  0  0  0  0  0  0  0  0  0  0  0
    8.8516   -1.3830   -2.9423 C   0  0  0  0  0  0  0  0  0  0  0  0
    9.3554   -1.4217   -4.0659 O   0  0  0  0  0  0  0  0  0  0  0  0
    7.4826   -1.3297   -2.8610 N   0  0  0  0  0  0  0  0  0  0  0  0
    6.7736   -1.2543   -1.6675 C   0  0  0  0  0  0  0  0  0  0  0  0
    5.3792   -1.1777   -1.6736 C   0  0  0  0  0  0  0  0  0  0  0  0
    0.4206    0.0723    1.0346 H   0  0  0  0  0  0  0  0  0  0  0  0
    0.6615   -1.4364    0.1503 H   0  0  0  0  0  0  0  0  0  0  0  0
    0.7549    0.1180   -0.7122 H   0  0  0  0  0  0  0  0  0  0  0  0
    3.8021    1.1049    1.0499 H   0  0  0  0  0  0  0  0  0  0  0  0
    3.4665   -0.1615    2.2267 H   0  0  0  0  0  0  0  0  0  0  0  0
    1.3544    0.7431    2.8400 H   0  0  0  0  0  0  0  0  0  0  0  0
    1.5374    2.0794    1.6387 H   0  0  0  0  0  0  0  0  0  0  0  0
    0.1094    2.5562    3.4093 H   0  0  0  0  0  0  0  0  0  0  0  0
   -0.9502    3.9874    5.0732 H   0  0  0  0  0  0  0  0  0  0  0  0
    0.4077    5.1638    6.7736 H   0  0  0  0  0  0  0  0  0  0  0  0
    3.9822    3.4104    5.1091 H   0  0  0  0  0  0  0  0  0  0  0  0
    4.8789   -1.3588    1.6935 H   0  0  0  0  0  0  0  0  0  0  0  0
    7.3083   -1.3176    1.6893 H   0  0  0  0  0  0  0  0  0  0  0  0
   11.1129   -3.1199   -3.0344 H   0  0  0  0  0  0  0  0  0  0  0  0
   13.5740   -3.2207   -2.9678 H   0  0  0  0  0  0  0  0  0  0  0  0
   14.8638   -1.5294   -1.6886 H   0  0  0  0  0  0  0  0  0  0  0  0
   13.6729    0.2674   -0.4570 H   0  0  0  0  0  0  0  0  0  0  0  0
   11.2130    0.3534   -0.4682 H   0  0  0  0  0  0  0  0  0  0  0  0
    6.9998   -1.3398   -3.7517 H   0  0  0  0  0  0  0  0  0  0  0  0
    4.8324   -1.1653   -2.6150 H   0  0  0  0  0  0  0  0  0  0  0  0
  1  2  1  0  0  0  0
  1 34  1  0  0  0  0
  1 35  1  0  0  0  0
  1 36  1  0  0  0  0
  2  3  1  0  0  0  0
  2 14  1  0  0  0  0
  3  4  1  0  0  0  0
  3 37  1  0  0  0  0
  3 38  1  0  0  0  0
  4  5  1  0  0  0  0
  4 39  1  0  0  0  0
  4 40  1  0  0  0  0
  5  6  1  0  0  0  0
  6  7  2  0  0  0  0
  6 13  1  0  0  0  0
  7  8  1  0  0  0  0
  7 41  1  0  0  0  0
  8  9  2  0  0  0  0
  8 42  1  0  0  0  0
  9 10  1  0  0  0  0
  9 43  1  0  0  0  0
 10 11  1  0  0  0  0
 10 13  2  0  0  0  0
 11 12  3  0  0  0  0
 13 44  1  0  0  0  0
 14 15  2  0  0  0  0
 14 16  1  0  0  0  0
 16 17  2  0  0  0  0
 16 33  1  0  0  0  0
 17 18  1  0  0  0  0
 17 45  1  0  0  0  0
 18 19  2  0  0  0  0
 18 46  1  0  0  0  0
 19 20  1  0  0  0  0
 19 32  1  0  0  0  0
 20 21  2  0  0  0  0
 20 22  1  0  0  0  0
 22 23  1  0  0  0  0
 22 29  1  0  0  0  0
 23 24  2  0  0  0  0
 23 28  1  0  0  0  0
 24 25  1  0  0  0  0
 24 47  1  0  0  0  0
 25 26  2  0  0  0  0
 25 48  1  0  0  0  0
 26 27  1  0  0  0  0
 26 49  1  0  0  0  0
 27 28  2  0  0  0  0
 27 50  1  0  0  0  0
 28 51  1  0  0  0  0
 29 30  2  0  0  0  0
 29 31  1  0  0  0  0
 31 32  1  0  0  0  0
 31 52  1  0  0  0  0
 32 33  2  0  0  0  0
 33 53  1  0  0  0  0
M  END
$$$$
