
 OpenBabel01122422413D

 44 47  0  0  0  0  0  0  0  0999 V2000
   -3.6234    0.8643    1.4898 N   0  0  0  0  0  0  0  0  0  0  0  0
   -2.7499    0.4530    0.8528 C   0  0  0  0  0  0  0  0  0  0  0  0
   -1.6717   -0.0565    0.0434 C   0  0  0  0  0  0  0  0  0  0  0  0
   -1.0667    0.7680   -0.9104 C   0  0  0  0  0  0  0  0  0  0  0  0
   -0.0085    0.3034   -1.7062 C   0  0  0  0  0  0  0  0  0  0  0  0
    0.5691    1.1676   -2.6566 C   0  0  0  0  0  0  0  0  0  0  0  0
    1.6284    0.7585   -3.4605 C   0  0  0  0  0  0  0  0  0  0  0  0
    2.1400   -0.5184   -3.3070 C   0  0  0  0  0  0  0  0  0  0  0  0
    1.5730   -1.3891   -2.3703 C   0  0  0  0  0  0  0  0  0  0  0  0
    0.4676   -1.0252   -1.5518 C   0  0  0  0  0  0  0  0  0  0  0  0
   -0.1935   -1.8831   -0.6058 C   0  0  0  0  0  0  0  0  0  0  0  0
    0.2312   -3.3222   -0.4201 C   0  0  0  0  0  0  0  0  0  0  0  0
    1.4075   -3.6346   -0.5938 O   0  0  0  0  0  0  0  0  0  0  0  0
   -0.7485   -4.2828   -0.1516 N   0  0  0  0  0  0  0  0  0  0  0  0
   -0.4264   -5.6442   -0.0590 C   0  0  0  0  0  0  0  0  0  0  0  0
    0.5173   -6.1645    0.7594 C   0  0  0  0  0  0  0  0  0  0  0  0
    1.2906   -5.2506    1.6959 C   0  0  0  0  0  0  0  0  0  0  0  0
    1.9322   -4.4924    2.4729 N   0  0  0  0  0  0  0  0  0  0  0  0
    0.8739   -7.5978    0.7529 C   0  0  0  0  0  0  0  0  0  0  0  0
    1.6333   -8.0354    1.6159 O   0  0  0  0  0  0  0  0  0  0  0  0
    0.2448   -8.3688   -0.2421 N   0  0  0  0  0  0  0  0  0  0  0  0
    0.5436   -9.7647   -0.2715 C   0  0  0  0  0  0  0  0  0  0  0  0
   -0.4983  -10.6962   -0.2055 C   0  0  0  0  0  0  0  0  0  0  0  0
   -0.2136  -12.0578   -0.1023 C   0  0  0  0  0  0  0  0  0  0  0  0
    1.1098  -12.4989   -0.1082 C   0  0  0  0  0  0  0  0  0  0  0  0
    2.1527  -11.5807   -0.2106 C   0  0  0  0  0  0  0  0  0  0  0  0
    1.8723  -10.2159   -0.2821 C   0  0  0  0  0  0  0  0  0  0  0  0
   -0.7311   -7.8211   -1.0666 C   0  0  0  0  0  0  0  0  0  0  0  0
   -1.1053   -6.5359   -0.9762 C   0  0  0  0  0  0  0  0  0  0  0  0
   -1.2361   -1.3776    0.1941 C   0  0  0  0  0  0  0  0  0  0  0  0
   -1.4173    1.7941   -1.0338 H   0  0  0  0  0  0  0  0  0  0  0  0
    0.1930    2.1834   -2.7825 H   0  0  0  0  0  0  0  0  0  0  0  0
    2.0577    1.4348   -4.1964 H   0  0  0  0  0  0  0  0  0  0  0  0
    2.9834   -0.8490   -3.9090 H   0  0  0  0  0  0  0  0  0  0  0  0
    2.0389   -2.3678   -2.2874 H   0  0  0  0  0  0  0  0  0  0  0  0
   -1.6898   -4.0435   -0.4431 H   0  0  0  0  0  0  0  0  0  0  0  0
   -1.5310  -10.3657   -0.1404 H   0  0  0  0  0  0  0  0  0  0  0  0
   -1.0244  -12.7711    0.0158 H   0  0  0  0  0  0  0  0  0  0  0  0
    1.3281  -13.5586   -0.0114 H   0  0  0  0  0  0  0  0  0  0  0  0
    3.1860  -11.9217   -0.2110 H   0  0  0  0  0  0  0  0  0  0  0  0
    2.6977   -9.5097   -0.3474 H   0  0  0  0  0  0  0  0  0  0  0  0
   -1.1536   -8.4751   -1.8252 H   0  0  0  0  0  0  0  0  0  0  0  0
   -1.8374   -6.1361   -1.6690 H   0  0  0  0  0  0  0  0  0  0  0  0
   -1.6956   -1.9962    0.9627 H   0  0  0  0  0  0  0  0  0  0  0  0
  1  2  3  0  0  0  0
  2  3  1  0  0  0  0
  3  4  2  0  0  0  0
  3 30  1  0  0  0  0
  4  5  1  0  0  0  0
  4 31  1  0  0  0  0
  5  6  2  0  0  0  0
  5 10  1  0  0  0  0
  6  7  1  0  0  0  0
  6 32  1  0  0  0  0
  7  8  2  0  0  0  0
  7 33  1  0  0  0  0
  8  9  1  0  0  0  0
  8 34  1  0  0  0  0
  9 10  2  0  0  0  0
  9 35  1  0  0  0  0
 10 11  1  0  0  0  0
 11 12  1  0  0  0  0
 11 30  2  0  0  0  0
 12 13  2  0  0  0  0
 12 14  1  0  0  0  0
 14 15  1  0  0  0  0
 14 36  1  0  0  0  0
 15 16  2  0  0  0  0
 15 29  1  0  0  0  0
 16 17  1  0  0  0  0
 16 19  1  0  0  0  0
 17 18  3  0  0  0  0
 19 20  2  0  0  0  0
 19 21  1  0  0  0  0
 21 22  1  0  0  0  0
 21 28  1  0  0  0  0
 22 23  2  0  0  0  0
 22 27  1  0  0  0  0
 23 24  1  0  0  0  0
 23 37  1  0  0  0  0
 24 25  2  0  0  0  0
 24 38  1  0  0  0  0
 25 26  1  0  0  0  0
 25 39  1  0  0  0  0
 26 27  2  0  0  0  0
 26 40  1  0  0  0  0
 27 41  1  0  0  0  0
 28 29  2  0  0  0  0
 28 42  1  0  0  0  0
 29 43  1  0  0  0  0
 30 44  1  0  0  0  0
M  END
$$$$
