
 OpenBabel01122422413D

 46 49  0  0  1  0  0  0  0  0999 V2000
    2.9871    1.3061   -0.1540 O   0  0  0  0  0  0  0  0  0  0  0  0
    2.3950    0.2433   -0.2516 C   0  0  0  0  0  0  0  0  0  0  0  0
    2.9495   -0.9909   -0.2203 O   0  0  0  0  0  0  0  0  0  0  0  0
    4.3949   -1.0798   -0.1715 C   0  0  3  0  0  0  0  0  0  0  0  0
    4.8217   -1.9910    0.9818 C   0  0  0  0  0  0  0  0  0  0  0  0
    6.0563   -1.7776    1.6218 C   0  0  0  0  0  0  0  0  0  0  0  0
    6.4614   -2.6026    2.6688 C   0  0  0  0  0  0  0  0  0  0  0  0
    7.6397   -2.3770    3.2643 F   0  0  0  0  0  0  0  0  0  0  0  0
    5.6645   -3.6520    3.1033 C   0  0  0  0  0  0  0  0  0  0  0  0
    4.4511   -3.8964    2.4639 C   0  0  0  0  0  0  0  0  0  0  0  0
    4.0365   -3.0778    1.4056 C   0  0  0  0  0  0  0  0  0  0  0  0
    4.9344   -1.5912   -1.5113 C   0  0  0  0  0  0  0  0  0  0  0  0
    6.2373   -1.2618   -1.9003 C   0  0  0  0  0  0  0  0  0  0  0  0
    6.7539   -1.7984   -3.0770 C   0  0  0  0  0  0  0  0  0  0  0  0
    5.9646   -2.6445   -3.8424 C   0  0  0  0  0  0  0  0  0  0  0  0
    4.6821   -2.9179   -3.3992 C   0  0  0  0  0  0  0  0  0  0  0  0
    4.1523   -2.4169   -2.2598 N   0  0  0  0  0  0  0  0  0  0  0  0
    0.9076    0.1481   -0.3687 C   0  0  0  0  0  0  0  0  0  0  0  0
    0.2807   -1.0642   -0.6949 C   0  0  0  0  0  0  0  0  0  0  0  0
   -1.1115   -1.1563   -0.7163 C   0  0  0  0  0  0  0  0  0  0  0  0
   -1.8875   -0.0456   -0.3875 C   0  0  0  0  0  0  0  0  0  0  0  0
   -1.2781    1.1749   -0.0664 C   0  0  0  0  0  0  0  0  0  0  0  0
   -2.1451    2.2558    0.4829 C   0  0  0  0  0  0  0  0  0  0  0  0
   -3.0514    1.9267    1.3555 N   0  0  0  0  0  0  0  0  0  0  0  0
   -3.7988    2.9331    1.8905 N   0  0  0  0  0  0  0  0  0  0  0  0
   -3.6688    4.2678    1.6074 C   0  0  0  0  0  0  0  0  0  0  0  0
   -4.3299    5.1434    2.1487 O   0  0  0  0  0  0  0  0  0  0  0  0
   -2.6691    4.5988    0.5695 C   0  0  0  0  0  0  0  0  0  0  0  0
   -1.9218    3.6451    0.0121 C   0  0  0  0  0  0  0  0  0  0  0  0
    0.1211    1.2838   -0.0898 C   0  0  0  0  0  0  0  0  0  0  0  0
    4.8195   -0.0857    0.0154 H   0  0  0  0  0  0  0  0  0  0  0  0
    6.7191   -0.9744    1.3149 H   0  0  0  0  0  0  0  0  0  0  0  0
    5.9958   -4.2744    3.9285 H   0  0  0  0  0  0  0  0  0  0  0  0
    3.8263   -4.7258    2.7867 H   0  0  0  0  0  0  0  0  0  0  0  0
    3.0937   -3.2982    0.9072 H   0  0  0  0  0  0  0  0  0  0  0  0
    6.8552   -0.6099   -1.2908 H   0  0  0  0  0  0  0  0  0  0  0  0
    7.7696   -1.5643   -3.3871 H   0  0  0  0  0  0  0  0  0  0  0  0
    6.3406   -3.0846   -4.7590 H   0  0  0  0  0  0  0  0  0  0  0  0
    4.0261   -3.5738   -3.9644 H   0  0  0  0  0  0  0  0  0  0  0  0
    0.8680   -1.9540   -0.9150 H   0  0  0  0  0  0  0  0  0  0  0  0
   -1.5912   -2.1048   -0.9471 H   0  0  0  0  0  0  0  0  0  0  0  0
   -2.9713   -0.1439   -0.3474 H   0  0  0  0  0  0  0  0  0  0  0  0
   -4.4677    2.6664    2.6067 H   0  0  0  0  0  0  0  0  0  0  0  0
   -2.5932    5.6465    0.2954 H   0  0  0  0  0  0  0  0  0  0  0  0
   -1.2004    3.8544   -0.7669 H   0  0  0  0  0  0  0  0  0  0  0  0
    0.6064    2.2190    0.1807 H   0  0  0  0  0  0  0  0  0  0  0  0
  1  2  2  0  0  0  0
  2  3  1  0  0  0  0
  2 18  1  0  0  0  0
  3  4  1  0  0  0  0
  4  5  1  0  0  0  0
  4 12  1  0  0  0  0
  4 31  1  0  0  0  0
  5  6  2  0  0  0  0
  5 11  1  0  0  0  0
  6  7  1  0  0  0  0
  6 32  1  0  0  0  0
  7  8  1  0  0  0  0
  7  9  2  0  0  0  0
  9 10  1  0  0  0  0
  9 33  1  0  0  0  0
 10 11  2  0  0  0  0
 10 34  1  0  0  0  0
 11 35  1  0  0  0  0
 12 13  2  0  0  0  0
 12 17  1  0  0  0  0
 13 14  1  0  0  0  0
 13 36  1  0  0  0  0
 14 15  2  0  0  0  0
 14 37  1  0  0  0  0
 15 16  1  0  0  0  0
 15 38  1  0  0  0  0
 16 17  2  0  0  0  0
 16 39  1  0  0  0  0
 18 19  2  0  0  0  0
 18 30  1  0  0  0  0
 19 20  1  0  0  0  0
 19 40  1  0  0  0  0
 20 21  2  0  0  0  0
 20 41  1  0  0  0  0
 21 22  1  0  0  0  0
 21 42  1  0  0  0  0
 22 23  1  0  0  0  0
 22 30  2  0  0  0  0
 23 24  2  0  0  0  0
 23 29  1  0  0  0  0
 24 25  1  0  0  0  0
 25 26  1  0  0  0  0
 25 43  1  0  0  0  0
 26 27  2  0  0  0  0
 26 28  1  0  0  0  0
 28 29  2  0  0  0  0
 28 44  1  0  0  0  0
 29 45  1  0  0  0  0
 30 46  1  0  0  0  0
M  END
$$$$
