
 OpenBabel01122422353D

 46 49  0  0  0  0  0  0  0  0999 V2000
    1.0924   -0.2424    0.1650 O   0  0  0  0  0  0  0  0  0  0  0  0
    2.3036   -0.0607    0.0832 C   0  0  0  0  0  0  0  0  0  0  0  0
    3.0002    0.6922    0.9887 N   0  0  0  0  0  0  0  0  0  0  0  0
    2.3543    1.4079    2.0641 C   0  0  0  0  0  0  0  0  0  0  0  0
    3.2681    1.5002    3.2556 C   0  0  0  0  0  0  0  0  0  0  0  0
    3.2219    0.5195    4.2533 C   0  0  0  0  0  0  0  0  0  0  0  0
    4.1008    0.5722    5.3318 C   0  0  0  0  0  0  0  0  0  0  0  0
    5.0591    1.5851    5.4032 C   0  0  0  0  0  0  0  0  0  0  0  0
    5.1588    2.5567    4.3965 C   0  0  0  0  0  0  0  0  0  0  0  0
    6.2520    3.5267    4.4144 C   0  0  0  0  0  0  0  0  0  0  0  0
    7.3713    3.6996    5.2080 C   0  0  0  0  0  0  0  0  0  0  0  0
    8.1173    4.7607    4.6408 C   0  0  0  0  0  0  0  0  0  0  0  0
    7.3972    5.1926    3.5538 C   0  0  0  0  0  0  0  0  0  0  0  0
    6.2637    4.4592    3.4129 O   0  0  0  0  0  0  0  0  0  0  0  0
    4.2352    2.5163    3.3397 C   0  0  0  0  0  0  0  0  0  0  0  0
    3.0988   -0.6390   -1.0396 C   0  0  0  0  0  0  0  0  0  0  0  0
    2.4322   -1.3222   -1.9776 C   0  0  0  0  0  0  0  0  0  0  0  0
    3.0555   -1.8260   -3.0795 N   0  0  0  0  0  0  0  0  0  0  0  0
    4.3980   -1.7020   -3.3422 C   0  0  0  0  0  0  0  0  0  0  0  0
    4.8357   -2.1778   -4.3874 O   0  0  0  0  0  0  0  0  0  0  0  0
    5.1432   -1.0679   -2.3438 N   0  0  0  0  0  0  0  0  0  0  0  0
    6.5561   -0.9868   -2.4966 C   0  0  0  0  0  0  0  0  0  0  0  0
    7.1237   -0.4289   -3.6509 C   0  0  0  0  0  0  0  0  0  0  0  0
    8.5116   -0.3336   -3.7748 C   0  0  0  0  0  0  0  0  0  0  0  0
    9.3401   -0.8288   -2.7682 C   0  0  0  0  0  0  0  0  0  0  0  0
    8.7847   -1.4038   -1.6277 C   0  0  0  0  0  0  0  0  0  0  0  0
    7.3979   -1.4652   -1.4838 C   0  0  0  0  0  0  0  0  0  0  0  0
    4.5702   -0.4859   -1.2091 C   0  0  0  0  0  0  0  0  0  0  0  0
    5.1930    0.1803   -0.3779 O   0  0  0  0  0  0  0  0  0  0  0  0
    3.9960    0.8579    0.8349 H   0  0  0  0  0  0  0  0  0  0  0  0
    1.4126    0.9189    2.3375 H   0  0  0  0  0  0  0  0  0  0  0  0
    2.0988    2.4090    1.6963 H   0  0  0  0  0  0  0  0  0  0  0  0
    2.5072   -0.2982    4.1854 H   0  0  0  0  0  0  0  0  0  0  0  0
    4.0584   -0.1901    6.1054 H   0  0  0  0  0  0  0  0  0  0  0  0
    5.7455    1.5876    6.2458 H   0  0  0  0  0  0  0  0  0  0  0  0
    7.6409    3.1043    6.0682 H   0  0  0  0  0  0  0  0  0  0  0  0
    9.0681    5.1507    4.9749 H   0  0  0  0  0  0  0  0  0  0  0  0
    7.5526    5.9602    2.8088 H   0  0  0  0  0  0  0  0  0  0  0  0
    4.2893    3.2629    2.5488 H   0  0  0  0  0  0  0  0  0  0  0  0
    1.3586   -1.4912   -1.9238 H   0  0  0  0  0  0  0  0  0  0  0  0
    2.5246   -2.3302   -3.7827 H   0  0  0  0  0  0  0  0  0  0  0  0
    6.4935   -0.0350   -4.4445 H   0  0  0  0  0  0  0  0  0  0  0  0
    8.9453    0.1281   -4.6575 H   0  0  0  0  0  0  0  0  0  0  0  0
   10.4201   -0.7664   -2.8741 H   0  0  0  0  0  0  0  0  0  0  0  0
    9.4293   -1.8045   -0.8491 H   0  0  0  0  0  0  0  0  0  0  0  0
    6.9824   -1.9197   -0.5877 H   0  0  0  0  0  0  0  0  0  0  0  0
  1  2  2  0  0  0  0
  2  3  1  0  0  0  0
  2 16  1  0  0  0  0
  3  4  1  0  0  0  0
  3 30  1  0  0  0  0
  4  5  1  0  0  0  0
  4 31  1  0  0  0  0
  4 32  1  0  0  0  0
  5  6  2  0  0  0  0
  5 15  1  0  0  0  0
  6  7  1  0  0  0  0
  6 33  1  0  0  0  0
  7  8  2  0  0  0  0
  7 34  1  0  0  0  0
  8  9  1  0  0  0  0
  8 35  1  0  0  0  0
  9 10  1  0  0  0  0
  9 15  2  0  0  0  0
 10 11  2  0  0  0  0
 10 14  1  0  0  0  0
 11 12  1  0  0  0  0
 11 36  1  0  0  0  0
 12 13  2  0  0  0  0
 12 37  1  0  0  0  0
 13 14  1  0  0  0  0
 13 38  1  0  0  0  0
 15 39  1  0  0  0  0
 16 17  2  0  0  0  0
 16 28  1  0  0  0  0
 17 18  1  0  0  0  0
 17 40  1  0  0  0  0
 18 19  1  0  0  0  0
 18 41  1  0  0  0  0
 19 20  2  0  0  0  0
 19 21  1  0  0  0  0
 21 22  1  0  0  0  0
 21 28  1  0  0  0  0
 22 23  2  0  0  0  0
 22 27  1  0  0  0  0
 23 24  1  0  0  0  0
 23 42  1  0  0  0  0
 24 25  2  0  0  0  0
 24 43  1  0  0  0  0
 25 26  1  0  0  0  0
 25 44  1  0  0  0  0
 26 27  2  0  0  0  0
 26 45  1  0  0  0  0
 27 46  1  0  0  0  0
 28 29  2  0  0  0  0
M  END
$$$$
