
 OpenBabel01122422413D

 57 59  0  0  0  0  0  0  0  0999 V2000
    2.3389   -0.5719   -1.3242 N   0  0  0  0  0  0  0  0  0  0  0  0
    2.1208   -0.2488   -0.0204 C   0  0  0  0  0  0  0  0  0  0  0  0
    1.2374    0.5495    0.2846 O   0  0  0  0  0  0  0  0  0  0  0  0
    2.9965   -0.9562    1.0204 C   0  0  0  0  0  0  0  0  0  0  0  0
    4.4443   -0.6747    0.8373 N   0  0  0  0  0  0  0  0  0  0  0  0
    4.7201    0.7923    0.9198 C   0  0  0  0  0  0  0  0  0  0  0  0
    6.1596    1.2036    0.5146 C   0  0  0  0  0  0  0  0  0  0  0  0
    6.7887    2.0382    1.1657 O   0  0  0  0  0  0  0  0  0  0  0  0
    6.7277    0.7092   -0.6385 N   0  0  0  0  0  0  0  0  0  0  0  0
    6.3092   -0.5242   -1.2236 C   0  0  0  0  0  0  0  0  0  0  0  0
    6.7859   -0.8245   -2.6089 C   0  0  0  0  0  0  0  0  0  0  0  0
    7.8079   -1.7817   -2.7427 C   0  0  0  0  0  0  0  0  0  0  0  0
    8.1260   -2.3071   -3.9907 C   0  0  0  0  0  0  0  0  0  0  0  0
    7.4271   -1.8835   -5.1123 C   0  0  0  0  0  0  0  0  0  0  0  0
    6.4404   -0.9019   -4.9978 C   0  0  0  0  0  0  0  0  0  0  0  0
    6.1144   -0.3377   -3.7508 C   0  0  0  0  0  0  0  0  0  0  0  0
    5.0220    0.7159   -3.7228 C   0  0  0  0  0  0  0  0  0  0  0  0
    4.7115    1.2150   -2.4956 F   0  0  0  0  0  0  0  0  0  0  0  0
    5.3288    1.7955   -4.4914 F   0  0  0  0  0  0  0  0  0  0  0  0
    3.8423    0.2320   -4.2126 F   0  0  0  0  0  0  0  0  0  0  0  0
    5.2473   -1.4160    1.8348 C   0  0  0  0  0  0  0  0  0  0  0  0
    5.1374   -2.9264    1.7207 C   0  0  0  0  0  0  0  0  0  0  0  0
    5.3943   -3.6232    0.5312 C   0  0  0  0  0  0  0  0  0  0  0  0
    5.2616   -5.0181    0.4611 C   0  0  0  0  0  0  0  0  0  0  0  0
    4.8801   -5.7749    1.5788 C   0  0  0  0  0  0  0  0  0  0  0  0
    4.6998   -7.2463    1.5005 C   0  0  0  0  0  0  0  0  0  0  0  0
    5.4904   -8.0432    0.6504 C   0  0  0  0  0  0  0  0  0  0  0  0
    5.3046   -9.4295    0.5719 C   0  0  0  0  0  0  0  0  0  0  0  0
    4.3336  -10.0517    1.3421 C   0  0  0  0  0  0  0  0  0  0  0  0
    3.5365   -9.2900    2.1907 C   0  0  0  0  0  0  0  0  0  0  0  0
    3.7157   -7.9028    2.2606 C   0  0  0  0  0  0  0  0  0  0  0  0
    4.6614   -5.0707    2.7728 C   0  0  0  0  0  0  0  0  0  0  0  0
    4.7849   -3.6779    2.8460 C   0  0  0  0  0  0  0  0  0  0  0  0
    1.8315   -0.0394   -2.0239 H   0  0  0  0  0  0  0  0  0  0  0  0
    3.2036   -1.0131   -1.6070 H   0  0  0  0  0  0  0  0  0  0  0  0
    2.7937   -2.0252    0.8904 H   0  0  0  0  0  0  0  0  0  0  0  0
    2.6559   -0.6622    2.0171 H   0  0  0  0  0  0  0  0  0  0  0  0
    4.5313    1.1589    1.9363 H   0  0  0  0  0  0  0  0  0  0  0  0
    4.0708    1.3531    0.2373 H   0  0  0  0  0  0  0  0  0  0  0  0
    7.6960    0.9862   -0.7449 H   0  0  0  0  0  0  0  0  0  0  0  0
    5.2270   -0.5894   -1.2651 H   0  0  0  0  0  0  0  0  0  0  0  0
    6.6698   -1.3014   -0.5495 H   0  0  0  0  0  0  0  0  0  0  0  0
    8.3224   -2.1669   -1.8644 H   0  0  0  0  0  0  0  0  0  0  0  0
    8.8939   -3.0707   -4.0736 H   0  0  0  0  0  0  0  0  0  0  0  0
    7.6476   -2.3212   -6.0828 H   0  0  0  0  0  0  0  0  0  0  0  0
    5.8988   -0.5908   -5.8904 H   0  0  0  0  0  0  0  0  0  0  0  0
    4.9692   -1.0940    2.8469 H   0  0  0  0  0  0  0  0  0  0  0  0
    6.3125   -1.1789    1.7260 H   0  0  0  0  0  0  0  0  0  0  0  0
    5.6773   -3.1058   -0.3762 H   0  0  0  0  0  0  0  0  0  0  0  0
    5.4447   -5.4996   -0.4975 H   0  0  0  0  0  0  0  0  0  0  0  0
    6.2744   -7.5981    0.0427 H   0  0  0  0  0  0  0  0  0  0  0  0
    5.9281  -10.0188   -0.0997 H   0  0  0  0  0  0  0  0  0  0  0  0
    4.1916  -11.1292    1.2777 H   0  0  0  0  0  0  0  0  0  0  0  0
    2.7714   -9.7673    2.7961 H   0  0  0  0  0  0  0  0  0  0  0  0
    3.0565   -7.3375    2.9153 H   0  0  0  0  0  0  0  0  0  0  0  0
    4.3924   -5.6039    3.6855 H   0  0  0  0  0  0  0  0  0  0  0  0
    4.5921   -3.1850    3.7955 H   0  0  0  0  0  0  0  0  0  0  0  0
  1  2  1  0  0  0  0
  1 34  1  0  0  0  0
  1 35  1  0  0  0  0
  2  3  2  0  0  0  0
  2  4  1  0  0  0  0
  4  5  1  0  0  0  0
  4 36  1  0  0  0  0
  4 37  1  0  0  0  0
  5  6  1  0  0  0  0
  5 21  1  0  0  0  0
  6  7  1  0  0  0  0
  6 38  1  0  0  0  0
  6 39  1  0  0  0  0
  7  8  2  0  0  0  0
  7  9  1  0  0  0  0
  9 10  1  0  0  0  0
  9 40  1  0  0  0  0
 10 11  1  0  0  0  0
 10 41  1  0  0  0  0
 10 42  1  0  0  0  0
 11 12  2  0  0  0  0
 11 16  1  0  0  0  0
 12 13  1  0  0  0  0
 12 43  1  0  0  0  0
 13 14  2  0  0  0  0
 13 44  1  0  0  0  0
 14 15  1  0  0  0  0
 14 45  1  0  0  0  0
 15 16  2  0  0  0  0
 15 46  1  0  0  0  0
 16 17  1  0  0  0  0
 17 18  1  0  0  0  0
 17 19  1  0  0  0  0
 17 20  1  0  0  0  0
 21 22  1  0  0  0  0
 21 47  1  0  0  0  0
 21 48  1  0  0  0  0
 22 23  2  0  0  0  0
 22 33  1  0  0  0  0
 23 24  1  0  0  0  0
 23 49  1  0  0  0  0
 24 25  2  0  0  0  0
 24 50  1  0  0  0  0
 25 26  1  0  0  0  0
 25 32  1  0  0  0  0
 26 27  2  0  0  0  0
 26 31  1  0  0  0  0
 27 28  1  0  0  0  0
 27 51  1  0  0  0  0
 28 29  2  0  0  0  0
 28 52  1  0  0  0  0
 29 30  1  0  0  0  0
 29 53  1  0  0  0  0
 30 31  2  0  0  0  0
 30 54  1  0  0  0  0
 31 55  1  0  0  0  0
 32 33  2  0  0  0  0
 32 56  1  0  0  0  0
 33 57  1  0  0  0  0
M  END
$$$$
