
 OpenBabel01122422413D

 39 42  0  0  0  0  0  0  0  0999 V2000
    0.9799    0.3085   -0.0778 O   0  0  0  0  0  0  0  0  0  0  0  0
    2.1947    0.1125   -0.0423 C   0  0  0  0  0  0  0  0  0  0  0  0
    2.8508   -1.0213   -0.4465 N   0  0  0  0  0  0  0  0  0  0  0  0
    2.2085   -2.0838   -1.0050 C   0  0  0  0  0  0  0  0  0  0  0  0
    0.9528   -2.0921   -1.4408 N   0  0  0  0  0  0  0  0  0  0  0  0
    0.7272   -3.3890   -1.6945 N   0  0  0  0  0  0  0  0  0  0  0  0
   -0.5687   -3.8534   -2.0249 C   0  0  0  0  0  0  0  0  0  0  0  0
   -0.8195   -5.2214   -2.2042 C   0  0  0  0  0  0  0  0  0  0  0  0
   -2.1155   -5.6562   -2.4950 C   0  0  0  0  0  0  0  0  0  0  0  0
   -3.1467   -4.7294   -2.6195 C   0  0  0  0  0  0  0  0  0  0  0  0
   -4.3832   -5.1611   -2.9007 F   0  0  0  0  0  0  0  0  0  0  0  0
   -2.8998   -3.3718   -2.4512 C   0  0  0  0  0  0  0  0  0  0  0  0
   -3.8949   -2.4859   -2.5830 F   0  0  0  0  0  0  0  0  0  0  0  0
   -1.6195   -2.9253   -2.1452 C   0  0  0  0  0  0  0  0  0  0  0  0
    1.8973   -4.0861   -1.5256 C   0  0  0  0  0  0  0  0  0  0  0  0
    2.8530   -3.2798   -1.1157 N   0  0  0  0  0  0  0  0  0  0  0  0
    3.0752    1.1207    0.5589 C   0  0  0  0  0  0  0  0  0  0  0  0
    4.4179    1.0158    0.5944 N   0  0  0  0  0  0  0  0  0  0  0  0
    4.8272    2.0830    1.3437 N   0  0  0  0  0  0  0  0  0  0  0  0
    6.1941    2.2516    1.6834 C   0  0  0  0  0  0  0  0  0  0  0  0
    7.1588    1.3713    1.1647 C   0  0  0  0  0  0  0  0  0  0  0  0
    8.5043    1.5225    1.5184 C   0  0  0  0  0  0  0  0  0  0  0  0
    8.8751    2.5452    2.3852 C   0  0  0  0  0  0  0  0  0  0  0  0
   10.1630    2.6857    2.7302 F   0  0  0  0  0  0  0  0  0  0  0  0
    7.9384    3.4173    2.9099 C   0  0  0  0  0  0  0  0  0  0  0  0
    6.6032    3.2722    2.5512 C   0  0  0  0  0  0  0  0  0  0  0  0
    5.7454    4.1407    3.0990 F   0  0  0  0  0  0  0  0  0  0  0  0
    3.7610    2.8646    1.7206 C   0  0  0  0  0  0  0  0  0  0  0  0
    2.6314    2.2912    1.2089 C   0  0  0  0  0  0  0  0  0  0  0  0
    3.8188   -1.1466   -0.1844 H   0  0  0  0  0  0  0  0  0  0  0  0
   -0.0391   -5.9715   -2.1126 H   0  0  0  0  0  0  0  0  0  0  0  0
   -2.3293   -6.7130   -2.6223 H   0  0  0  0  0  0  0  0  0  0  0  0
   -1.4635   -1.8574   -2.0006 H   0  0  0  0  0  0  0  0  0  0  0  0
    1.9906   -5.1492   -1.6845 H   0  0  0  0  0  0  0  0  0  0  0  0
    6.8863    0.5652    0.4862 H   0  0  0  0  0  0  0  0  0  0  0  0
    9.2613    0.8512    1.1304 H   0  0  0  0  0  0  0  0  0  0  0  0
    8.2351    4.2040    3.5854 H   0  0  0  0  0  0  0  0  0  0  0  0
    3.8621    3.7448    2.3334 H   0  0  0  0  0  0  0  0  0  0  0  0
    1.6123    2.6321    1.3360 H   0  0  0  0  0  0  0  0  0  0  0  0
  1  2  2  0  0  0  0
  2  3  1  0  0  0  0
  2 17  1  0  0  0  0
  3  4  1  0  0  0  0
  3 30  1  0  0  0  0
  4  5  2  0  0  0  0
  4 16  1  0  0  0  0
  5  6  1  0  0  0  0
  6  7  1  0  0  0  0
  6 15  1  0  0  0  0
  7  8  2  0  0  0  0
  7 14  1  0  0  0  0
  8  9  1  0  0  0  0
  8 31  1  0  0  0  0
  9 10  2  0  0  0  0
  9 32  1  0  0  0  0
 10 11  1  0  0  0  0
 10 12  1  0  0  0  0
 12 13  1  0  0  0  0
 12 14  2  0  0  0  0
 14 33  1  0  0  0  0
 15 16  2  0  0  0  0
 15 34  1  0  0  0  0
 17 18  2  0  0  0  0
 17 29  1  0  0  0  0
 18 19  1  0  0  0  0
 19 20  1  0  0  0  0
 19 28  1  0  0  0  0
 20 21  2  0  0  0  0
 20 26  1  0  0  0  0
 21 22  1  0  0  0  0
 21 35  1  0  0  0  0
 22 23  2  0  0  0  0
 22 36  1  0  0  0  0
 23 24  1  0  0  0  0
 23 25  1  0  0  0  0
 25 26  2  0  0  0  0
 25 37  1  0  0  0  0
 26 27  1  0  0  0  0
 28 29  2  0  0  0  0
 28 38  1  0  0  0  0
 29 39  1  0  0  0  0
M  END
$$$$
