
 OpenBabel01122422413D

 45 48  0  0  0  0  0  0  0  0999 V2000
    3.0735   -0.2149    3.2604 N   0  0  0  0  0  0  0  0  0  0  0  0
    3.3794   -0.0590    2.1452 C   0  0  0  0  0  0  0  0  0  0  0  0
    3.7866    0.1813    0.8141 C   0  0  0  0  0  0  0  0  0  0  0  0
    4.3960    1.3209    0.4586 C   0  0  0  0  0  0  0  0  0  0  0  0
    4.7910    1.6041   -0.9237 C   0  0  0  0  0  0  0  0  0  0  0  0
    5.4535    2.8975   -1.3562 C   0  0  0  0  0  0  0  0  0  0  0  0
    5.3122    3.2968   -2.5061 O   0  0  0  0  0  0  0  0  0  0  0  0
    6.1374    3.5857   -0.3893 N   0  0  0  0  0  0  0  0  0  0  0  0
    6.6554    4.8990   -0.5950 C   0  0  0  0  0  0  0  0  0  0  0  0
    7.5261    5.0975   -1.6733 C   0  0  0  0  0  0  0  0  0  0  0  0
    8.1804    6.3159   -1.8361 C   0  0  0  0  0  0  0  0  0  0  0  0
    7.9307    7.3584   -0.9531 C   0  0  0  0  0  0  0  0  0  0  0  0
    7.0199    7.1865    0.0936 C   0  0  0  0  0  0  0  0  0  0  0  0
    6.3701    5.9560    0.3172 C   0  0  0  0  0  0  0  0  0  0  0  0
    5.3814    5.8253    1.4256 C   0  0  0  0  0  0  0  0  0  0  0  0
    4.2380    5.0223    1.2726 C   0  0  0  0  0  0  0  0  0  0  0  0
    3.4258    4.6956    2.3504 C   0  0  0  0  0  0  0  0  0  0  0  0
    3.5817    5.3711    3.5567 C   0  0  0  0  0  0  0  0  0  0  0  0
    2.7184    5.1174    4.6186 C   0  0  0  0  0  0  0  0  0  0  0  0
    2.4447    6.1434    5.5138 C   0  0  0  0  0  0  0  0  0  0  0  0
    3.2816    7.2516    5.5577 C   0  0  0  0  0  0  0  0  0  0  0  0
    4.4060    7.3042    4.7247 C   0  0  0  0  0  0  0  0  0  0  0  0
    4.5265    6.4061    3.6527 C   0  0  0  0  0  0  0  0  0  0  0  0
    5.5003    6.5262    2.6411 C   0  0  0  0  0  0  0  0  0  0  0  0
    4.4895    0.6824   -1.8909 C   0  0  0  0  0  0  0  0  0  0  0  0
    4.7611    0.8215   -3.2360 N   0  0  0  0  0  0  0  0  0  0  0  0
    3.8787   -0.4879   -1.5105 N   0  0  0  0  0  0  0  0  0  0  0  0
    3.4976   -0.8212   -0.2368 C   0  0  0  0  0  0  0  0  0  0  0  0
    2.9569   -1.8992   -0.0001 O   0  0  0  0  0  0  0  0  0  0  0  0
    4.5798    2.0727    1.2191 H   0  0  0  0  0  0  0  0  0  0  0  0
    5.9718    3.3490    0.5875 H   0  0  0  0  0  0  0  0  0  0  0  0
    7.7399    4.2864   -2.3647 H   0  0  0  0  0  0  0  0  0  0  0  0
    8.8913    6.4443   -2.6465 H   0  0  0  0  0  0  0  0  0  0  0  0
    8.4355    8.3134   -1.0817 H   0  0  0  0  0  0  0  0  0  0  0  0
    6.8127    8.0468    0.7261 H   0  0  0  0  0  0  0  0  0  0  0  0
    3.9638    4.6356    0.2937 H   0  0  0  0  0  0  0  0  0  0  0  0
    2.5860    4.0201    2.2029 H   0  0  0  0  0  0  0  0  0  0  0  0
    2.2227    4.1555    4.7184 H   0  0  0  0  0  0  0  0  0  0  0  0
    1.5802    6.0680    6.1667 H   0  0  0  0  0  0  0  0  0  0  0  0
    3.0783    8.0495    6.2624 H   0  0  0  0  0  0  0  0  0  0  0  0
    5.1173    8.1171    4.8532 H   0  0  0  0  0  0  0  0  0  0  0  0
    6.3241    7.2191    2.7939 H   0  0  0  0  0  0  0  0  0  0  0  0
    4.9843    1.7869   -3.4789 H   0  0  0  0  0  0  0  0  0  0  0  0
    4.0060    0.4794   -3.8290 H   0  0  0  0  0  0  0  0  0  0  0  0
    3.7004   -1.1809   -2.2303 H   0  0  0  0  0  0  0  0  0  0  0  0
  1  2  3  0  0  0  0
  2  3  1  0  0  0  0
  3  4  2  0  0  0  0
  3 28  1  0  0  0  0
  4  5  1  0  0  0  0
  4 30  1  0  0  0  0
  5  6  1  0  0  0  0
  5 25  2  0  0  0  0
  6  7  2  0  0  0  0
  6  8  1  0  0  0  0
  8  9  1  0  0  0  0
  8 31  1  0  0  0  0
  9 10  2  0  0  0  0
  9 14  1  0  0  0  0
 10 11  1  0  0  0  0
 10 32  1  0  0  0  0
 11 12  2  0  0  0  0
 11 33  1  0  0  0  0
 12 13  1  0  0  0  0
 12 34  1  0  0  0  0
 13 14  2  0  0  0  0
 13 35  1  0  0  0  0
 14 15  1  0  0  0  0
 15 16  2  0  0  0  0
 15 24  1  0  0  0  0
 16 17  1  0  0  0  0
 16 36  1  0  0  0  0
 17 18  2  0  0  0  0
 17 37  1  0  0  0  0
 18 19  1  0  0  0  0
 18 23  1  0  0  0  0
 19 20  2  0  0  0  0
 19 38  1  0  0  0  0
 20 21  1  0  0  0  0
 20 39  1  0  0  0  0
 21 22  2  0  0  0  0
 21 40  1  0  0  0  0
 22 23  1  0  0  0  0
 22 41  1  0  0  0  0
 23 24  2  0  0  0  0
 24 42  1  0  0  0  0
 25 26  1  0  0  0  0
 25 27  1  0  0  0  0
 26 43  1  0  0  0  0
 26 44  1  0  0  0  0
 27 28  1  0  0  0  0
 27 45  1  0  0  0  0
 28 29  2  0  0  0  0
M  END
$$$$
