
 OpenBabel01122422413D

 49 52  0  0  0  0  0  0  0  0999 V2000
    1.0623   -0.0755    0.1516 O   0  0  0  0  0  0  0  0  0  0  0  0
    2.2837   -0.1228    0.0259 C   0  0  0  0  0  0  0  0  0  0  0  0
    2.9043   -0.5087   -1.1163 N   0  0  0  0  0  0  0  0  0  0  0  0
    2.2186   -0.9622   -2.2958 C   0  0  0  0  0  0  0  0  0  0  0  0
    3.0238   -0.6794   -3.5425 C   0  0  0  0  0  0  0  0  0  0  0  0
    3.4844   -1.7239   -4.3549 C   0  0  0  0  0  0  0  0  0  0  0  0
    4.2171   -1.4551   -5.5175 C   0  0  0  0  0  0  0  0  0  0  0  0
    4.5025   -0.1361   -5.8886 C   0  0  0  0  0  0  0  0  0  0  0  0
    5.2973    0.1472   -7.1013 C   0  0  0  0  0  0  0  0  0  0  0  0
    4.6621    0.2821   -8.2759 C   0  0  0  0  0  0  0  0  0  0  0  0
    5.3599    0.5624   -9.4287 N   0  0  0  0  0  0  0  0  0  0  0  0
    6.7231    0.7230   -9.4803 C   0  0  0  0  0  0  0  0  0  0  0  0
    7.3266    0.9685  -10.5179 O   0  0  0  0  0  0  0  0  0  0  0  0
    7.4394    0.5698   -8.1895 C   0  0  0  0  0  0  0  0  0  0  0  0
    6.7446    0.2969   -7.0741 C   0  0  0  0  0  0  0  0  0  0  0  0
    4.0437    0.9113   -5.0817 C   0  0  0  0  0  0  0  0  0  0  0  0
    3.3122    0.6414   -3.9194 C   0  0  0  0  0  0  0  0  0  0  0  0
    3.0852    0.2421    1.0695 N   0  0  0  0  0  0  0  0  0  0  0  0
    4.4780    0.3800    1.0856 C   0  0  0  0  0  0  0  0  0  0  0  0
    5.0794    0.8573    2.2457 C   0  0  0  0  0  0  0  0  0  0  0  0
    6.4689    1.0709    2.2772 C   0  0  0  0  0  0  0  0  0  0  0  0
    7.1528    1.5685    3.4889 C   0  0  0  0  0  0  0  0  0  0  0  0
    8.2826    2.3986    3.4239 C   0  0  0  0  0  0  0  0  0  0  0  0
    8.9222    2.8252    4.5872 C   0  0  0  0  0  0  0  0  0  0  0  0
    8.4075    2.4216    5.8047 C   0  0  0  0  0  0  0  0  0  0  0  0
    7.3206    1.6354    5.9282 N   0  0  0  0  0  0  0  0  0  0  0  0
    6.7301    1.2290    4.7774 C   0  0  0  0  0  0  0  0  0  0  0  0
    7.1852    0.7895    1.1064 C   0  0  0  0  0  0  0  0  0  0  0  0
    6.5132    0.2999    0.0032 C   0  0  0  0  0  0  0  0  0  0  0  0
    5.1875    0.0774   -0.0195 N   0  0  0  0  0  0  0  0  0  0  0  0
    3.9009   -0.6875   -1.0290 H   0  0  0  0  0  0  0  0  0  0  0  0
    1.2332   -0.4892   -2.3708 H   0  0  0  0  0  0  0  0  0  0  0  0
    2.0584   -2.0391   -2.1716 H   0  0  0  0  0  0  0  0  0  0  0  0
    3.2762   -2.7581   -4.0892 H   0  0  0  0  0  0  0  0  0  0  0  0
    4.5631   -2.2842   -6.1314 H   0  0  0  0  0  0  0  0  0  0  0  0
    3.5835    0.1900   -8.3824 H   0  0  0  0  0  0  0  0  0  0  0  0
    4.8713    0.6627  -10.3082 H   0  0  0  0  0  0  0  0  0  0  0  0
    8.5137    0.6863   -8.2051 H   0  0  0  0  0  0  0  0  0  0  0  0
    7.2538    0.1817   -6.1233 H   0  0  0  0  0  0  0  0  0  0  0  0
    4.2514    1.9443   -5.3516 H   0  0  0  0  0  0  0  0  0  0  0  0
    2.9678    1.4692   -3.3011 H   0  0  0  0  0  0  0  0  0  0  0  0
    2.5633    0.5113    1.8904 H   0  0  0  0  0  0  0  0  0  0  0  0
    4.4669    1.0822    3.1134 H   0  0  0  0  0  0  0  0  0  0  0  0
    8.6784    2.7313    2.4675 H   0  0  0  0  0  0  0  0  0  0  0  0
    9.8009    3.4587    4.5403 H   0  0  0  0  0  0  0  0  0  0  0  0
    8.8685    2.7274    6.7389 H   0  0  0  0  0  0  0  0  0  0  0  0
    5.8743    0.5785    4.9398 H   0  0  0  0  0  0  0  0  0  0  0  0
    8.2590    0.9296    1.0414 H   0  0  0  0  0  0  0  0  0  0  0  0
    7.0378    0.0688   -0.9196 H   0  0  0  0  0  0  0  0  0  0  0  0
  1  2  2  0  0  0  0
  2  3  1  0  0  0  0
  2 18  1  0  0  0  0
  3  4  1  0  0  0  0
  3 31  1  0  0  0  0
  4  5  1  0  0  0  0
  4 32  1  0  0  0  0
  4 33  1  0  0  0  0
  5  6  2  0  0  0  0
  5 17  1  0  0  0  0
  6  7  1  0  0  0  0
  6 34  1  0  0  0  0
  7  8  2  0  0  0  0
  7 35  1  0  0  0  0
  8  9  1  0  0  0  0
  8 16  1  0  0  0  0
  9 10  2  0  0  0  0
  9 15  1  0  0  0  0
 10 11  1  0  0  0  0
 10 36  1  0  0  0  0
 11 12  1  0  0  0  0
 11 37  1  0  0  0  0
 12 13  2  0  0  0  0
 12 14  1  0  0  0  0
 14 15  2  0  0  0  0
 14 38  1  0  0  0  0
 15 39  1  0  0  0  0
 16 17  2  0  0  0  0
 16 40  1  0  0  0  0
 17 41  1  0  0  0  0
 18 19  1  0  0  0  0
 18 42  1  0  0  0  0
 19 20  2  0  0  0  0
 19 30  1  0  0  0  0
 20 21  1  0  0  0  0
 20 43  1  0  0  0  0
 21 22  1  0  0  0  0
 21 28  2  0  0  0  0
 22 23  2  0  0  0  0
 22 27  1  0  0  0  0
 23 24  1  0  0  0  0
 23 44  1  0  0  0  0
 24 25  2  0  0  0  0
 24 45  1  0  0  0  0
 25 26  1  0  0  0  0
 25 46  1  0  0  0  0
 26 27  2  0  0  0  0
 27 47  1  0  0  0  0
 28 29  1  0  0  0  0
 28 48  1  0  0  0  0
 29 30  2  0  0  0  0
 29 49  1  0  0  0  0
M  END
$$$$
