
 OpenBabel01122422353D

 45 48  0  0  1  0  0  0  0  0999 V2000
    4.9804   -0.7479   -2.4080 C   0  0  0  0  0  0  0  0  0  0  0  0
    6.5869   -0.2441   -1.7357 S   0  0  0  0  0  0  0  0  0  0  0  0
    6.2566    1.4738   -1.3880 C   0  0  0  0  0  0  0  0  0  0  0  0
    5.9513    2.3785   -2.4050 C   0  0  0  0  0  0  0  0  0  0  0  0
    5.7334    3.7228   -2.1023 C   0  0  0  0  0  0  0  0  0  0  0  0
    5.8086    4.1702   -0.7801 C   0  0  0  0  0  0  0  0  0  0  0  0
    6.1116    3.2831    0.2647 C   0  0  0  0  0  0  0  0  0  0  0  0
    6.0715    3.7008    1.7326 C   0  0  3  0  0  0  0  0  0  0  0  0
    7.0694    3.0182    2.4983 O   0  0  0  0  0  0  0  0  0  0  0  0
    6.2297    5.1800    2.0298 C   0  0  0  0  0  0  0  0  0  0  0  0
    5.1717    5.9318    2.5471 C   0  0  0  0  0  0  0  0  0  0  0  0
    5.3267    7.2958    2.8002 C   0  0  0  0  0  0  0  0  0  0  0  0
    6.5607    7.9200    2.5846 C   0  0  0  0  0  0  0  0  0  0  0  0
    7.6615    7.1853    2.1334 C   0  0  0  0  0  0  0  0  0  0  0  0
    9.0351    7.7261    2.0757 C   0  0  0  0  0  0  0  0  0  0  0  0
    9.9238    7.2902    1.0760 C   0  0  0  0  0  0  0  0  0  0  0  0
   11.2904    7.5444    1.1534 C   0  0  0  0  0  0  0  0  0  0  0  0
   11.7624    8.3457    2.1798 C   0  0  0  0  0  0  0  0  0  0  0  0
   13.1419    8.5678    2.2055 O   0  0  0  0  0  0  0  0  0  0  0  0
   13.6244    9.6442    2.9435 C   0  0  0  0  0  0  0  0  0  0  0  0
   14.7848   10.0226    2.8237 O   0  0  0  0  0  0  0  0  0  0  0  0
   12.7520   10.2452    3.8049 N   0  0  0  0  0  0  0  0  0  0  0  0
   11.4426    9.9058    4.0211 C   0  0  0  0  0  0  0  0  0  0  0  0
   10.7594   10.4298    4.8976 O   0  0  0  0  0  0  0  0  0  0  0  0
   10.8938    8.9138    3.0957 C   0  0  0  0  0  0  0  0  0  0  0  0
    9.5303    8.5892    3.0709 C   0  0  0  0  0  0  0  0  0  0  0  0
    7.4596    5.8227    1.8285 C   0  0  0  0  0  0  0  0  0  0  0  0
    6.3377    1.9305   -0.0657 C   0  0  0  0  0  0  0  0  0  0  0  0
    4.9922   -1.8278   -2.5817 H   0  0  0  0  0  0  0  0  0  0  0  0
    4.7806   -0.2495   -3.3601 H   0  0  0  0  0  0  0  0  0  0  0  0
    4.1778   -0.5210   -1.7008 H   0  0  0  0  0  0  0  0  0  0  0  0
    5.8853    2.0502   -3.4391 H   0  0  0  0  0  0  0  0  0  0  0  0
    5.4939    4.4247   -2.8982 H   0  0  0  0  0  0  0  0  0  0  0  0
    5.6120    5.2226   -0.5818 H   0  0  0  0  0  0  0  0  0  0  0  0
    5.1033    3.3662    2.1246 H   0  0  0  0  0  0  0  0  0  0  0  0
    7.8369    2.8870    1.9184 H   0  0  0  0  0  0  0  0  0  0  0  0
    4.2205    5.4550    2.7757 H   0  0  0  0  0  0  0  0  0  0  0  0
    4.4929    7.8697    3.1968 H   0  0  0  0  0  0  0  0  0  0  0  0
    6.6514    8.9835    2.8029 H   0  0  0  0  0  0  0  0  0  0  0  0
    9.5622    6.6966    0.2369 H   0  0  0  0  0  0  0  0  0  0  0  0
   11.9718    7.1314    0.4171 H   0  0  0  0  0  0  0  0  0  0  0  0
   13.1277   11.0046    4.3531 H   0  0  0  0  0  0  0  0  0  0  0  0
    8.8720    8.9830    3.8449 H   0  0  0  0  0  0  0  0  0  0  0  0
    8.2958    5.2219    1.4734 H   0  0  0  0  0  0  0  0  0  0  0  0
    6.5574    1.2152    0.7268 H   0  0  0  0  0  0  0  0  0  0  0  0
  1  2  1  0  0  0  0
  1 29  1  0  0  0  0
  1 30  1  0  0  0  0
  1 31  1  0  0  0  0
  2  3  1  0  0  0  0
  3  4  2  0  0  0  0
  3 28  1  0  0  0  0
  4  5  1  0  0  0  0
  4 32  1  0  0  0  0
  5  6  2  0  0  0  0
  5 33  1  0  0  0  0
  6  7  1  0  0  0  0
  6 34  1  0  0  0  0
  7  8  1  0  0  0  0
  7 28  2  0  0  0  0
  8  9  1  0  0  0  0
  8 10  1  0  0  0  0
  8 35  1  0  0  0  0
  9 36  1  0  0  0  0
 10 11  2  0  0  0  0
 10 27  1  0  0  0  0
 11 12  1  0  0  0  0
 11 37  1  0  0  0  0
 12 13  2  0  0  0  0
 12 38  1  0  0  0  0
 13 14  1  0  0  0  0
 13 39  1  0  0  0  0
 14 15  1  0  0  0  0
 14 27  2  0  0  0  0
 15 16  2  0  0  0  0
 15 26  1  0  0  0  0
 16 17  1  0  0  0  0
 16 40  1  0  0  0  0
 17 18  2  0  0  0  0
 17 41  1  0  0  0  0
 18 19  1  0  0  0  0
 18 25  1  0  0  0  0
 19 20  1  0  0  0  0
 20 21  2  0  0  0  0
 20 22  1  0  0  0  0
 22 23  1  0  0  0  0
 22 42  1  0  0  0  0
 23 24  2  0  0  0  0
 23 25  1  0  0  0  0
 25 26  2  0  0  0  0
 26 43  1  0  0  0  0
 27 44  1  0  0  0  0
 28 45  1  0  0  0  0
M  END
$$$$
