
 OpenBabel01122422413D

 53 56  0  0  0  0  0  0  0  0999 V2000
    1.2920   -0.2650   -0.4805 O   0  0  0  0  0  0  0  0  0  0  0  0
    2.2872    0.1723    0.0763 C   0  0  0  0  0  0  0  0  0  0  0  0
    2.8059    1.4145   -0.0880 O   0  0  0  0  0  0  0  0  0  0  0  0
    2.1483    2.2573   -1.0542 C   0  0  0  0  0  0  0  0  0  0  0  0
    1.6803    3.5397   -0.4067 C   0  0  0  0  0  0  0  0  0  0  0  0
    2.5959    4.3664    0.2601 C   0  0  0  0  0  0  0  0  0  0  0  0
    2.1839    5.5800    0.8157 C   0  0  0  0  0  0  0  0  0  0  0  0
    0.8568    5.9824    0.7111 C   0  0  0  0  0  0  0  0  0  0  0  0
   -0.0661    5.1701    0.0506 C   0  0  0  0  0  0  0  0  0  0  0  0
    0.3464    3.9564   -0.5052 C   0  0  0  0  0  0  0  0  0  0  0  0
    3.1242   -0.6597    0.9944 C   0  0  0  0  0  0  0  0  0  0  0  0
    2.7531   -1.9980    1.2014 C   0  0  0  0  0  0  0  0  0  0  0  0
    3.5303   -2.8467    2.0045 C   0  0  0  0  0  0  0  0  0  0  0  0
    4.7002   -2.3732    2.6156 C   0  0  0  0  0  0  0  0  0  0  0  0
    5.5545   -3.2587    3.4919 C   0  0  0  0  0  0  0  0  0  0  0  0
    6.5899   -3.9477    2.7555 N   0  0  0  0  0  0  0  0  0  0  0  0
    7.7994   -4.2681    3.3391 C   0  0  0  0  0  0  0  0  0  0  0  0
    8.1062   -3.9344    4.4809 O   0  0  0  0  0  0  0  0  0  0  0  0
    8.6949   -5.0486    2.4915 C   0  0  0  0  0  0  0  0  0  0  0  0
    9.9571   -5.5210    2.8075 C   0  0  0  0  0  0  0  0  0  0  0  0
   10.3493   -6.2004    1.6928 N   0  0  0  0  0  0  0  0  0  0  0  0
   11.5505   -6.9974    1.5014 C   0  0  0  0  0  0  0  0  0  0  0  0
   12.6814   -6.1722    0.9586 C   0  0  0  0  0  0  0  0  0  0  0  0
   13.6007   -5.5368    1.8005 C   0  0  0  0  0  0  0  0  0  0  0  0
   14.5832   -4.7150    1.2556 C   0  0  0  0  0  0  0  0  0  0  0  0
   14.6270   -4.5663   -0.1199 C   0  0  0  0  0  0  0  0  0  0  0  0
   13.7804   -5.1896   -0.9659 N   0  0  0  0  0  0  0  0  0  0  0  0
   12.8252   -5.9702   -0.4115 C   0  0  0  0  0  0  0  0  0  0  0  0
    9.3978   -6.1625    0.7370 N   0  0  0  0  0  0  0  0  0  0  0  0
    8.3842   -5.4501    1.2134 N   0  0  0  0  0  0  0  0  0  0  0  0
    5.0622   -1.0317    2.4099 C   0  0  0  0  0  0  0  0  0  0  0  0
    4.2761   -0.1770    1.6226 C   0  0  0  0  0  0  0  0  0  0  0  0
    1.3197    1.7571   -1.5680 H   0  0  0  0  0  0  0  0  0  0  0  0
    2.8843    2.5133   -1.8254 H   0  0  0  0  0  0  0  0  0  0  0  0
    3.6397    4.0707    0.3387 H   0  0  0  0  0  0  0  0  0  0  0  0
    2.9049    6.2135    1.3265 H   0  0  0  0  0  0  0  0  0  0  0  0
    0.5371    6.9291    1.1381 H   0  0  0  0  0  0  0  0  0  0  0  0
   -1.1014    5.4847   -0.0367 H   0  0  0  0  0  0  0  0  0  0  0  0
   -0.3871    3.3420   -1.0280 H   0  0  0  0  0  0  0  0  0  0  0  0
    1.8490   -2.3885    0.7367 H   0  0  0  0  0  0  0  0  0  0  0  0
    3.2080   -3.8765    2.1506 H   0  0  0  0  0  0  0  0  0  0  0  0
    4.9383   -4.0162    3.9900 H   0  0  0  0  0  0  0  0  0  0  0  0
    6.0069   -2.6549    4.2882 H   0  0  0  0  0  0  0  0  0  0  0  0
    6.3704   -4.3867    1.8683 H   0  0  0  0  0  0  0  0  0  0  0  0
   10.5606   -5.4349    3.6989 H   0  0  0  0  0  0  0  0  0  0  0  0
   11.3055   -7.8266    0.8281 H   0  0  0  0  0  0  0  0  0  0  0  0
   11.8152   -7.4384    2.4705 H   0  0  0  0  0  0  0  0  0  0  0  0
   13.5515   -5.6635    2.8793 H   0  0  0  0  0  0  0  0  0  0  0  0
   15.2904   -4.1908    1.8887 H   0  0  0  0  0  0  0  0  0  0  0  0
   15.3598   -3.9182   -0.5914 H   0  0  0  0  0  0  0  0  0  0  0  0
   12.1539   -6.4369   -1.1293 H   0  0  0  0  0  0  0  0  0  0  0  0
    5.9671   -0.6407    2.8740 H   0  0  0  0  0  0  0  0  0  0  0  0
    4.5809    0.8605    1.5098 H   0  0  0  0  0  0  0  0  0  0  0  0
  1  2  2  0  0  0  0
  2  3  1  0  0  0  0
  2 11  1  0  0  0  0
  3  4  1  0  0  0  0
  4  5  1  0  0  0  0
  4 33  1  0  0  0  0
  4 34  1  0  0  0  0
  5  6  2  0  0  0  0
  5 10  1  0  0  0  0
  6  7  1  0  0  0  0
  6 35  1  0  0  0  0
  7  8  2  0  0  0  0
  7 36  1  0  0  0  0
  8  9  1  0  0  0  0
  8 37  1  0  0  0  0
  9 10  2  0  0  0  0
  9 38  1  0  0  0  0
 10 39  1  0  0  0  0
 11 12  2  0  0  0  0
 11 32  1  0  0  0  0
 12 13  1  0  0  0  0
 12 40  1  0  0  0  0
 13 14  2  0  0  0  0
 13 41  1  0  0  0  0
 14 15  1  0  0  0  0
 14 31  1  0  0  0  0
 15 16  1  0  0  0  0
 15 42  1  0  0  0  0
 15 43  1  0  0  0  0
 16 17  1  0  0  0  0
 16 44  1  0  0  0  0
 17 18  2  0  0  0  0
 17 19  1  0  0  0  0
 19 20  2  0  0  0  0
 19 30  1  0  0  0  0
 20 21  1  0  0  0  0
 20 45  1  0  0  0  0
 21 22  1  0  0  0  0
 21 29  1  0  0  0  0
 22 23  1  0  0  0  0
 22 46  1  0  0  0  0
 22 47  1  0  0  0  0
 23 24  2  0  0  0  0
 23 28  1  0  0  0  0
 24 25  1  0  0  0  0
 24 48  1  0  0  0  0
 25 26  2  0  0  0  0
 25 49  1  0  0  0  0
 26 27  1  0  0  0  0
 26 50  1  0  0  0  0
 27 28  2  0  0  0  0
 28 51  1  0  0  0  0
 29 30  2  0  0  0  0
 31 32  2  0  0  0  0
 31 52  1  0  0  0  0
 32 53  1  0  0  0  0
M  END
$$$$
