
 OpenBabel01122422413D

 44 47  0  0  0  0  0  0  0  0999 V2000
    1.0776   -0.1637   -0.1455 O   0  0  0  0  0  0  0  0  0  0  0  0
    2.2775    0.0941   -0.2288 C   0  0  0  0  0  0  0  0  0  0  0  0
    2.8526    1.2823    0.1863 N   0  0  0  0  0  0  0  0  0  0  0  0
    2.1628    2.3767    0.7751 C   0  0  0  0  0  0  0  0  0  0  0  0
    0.7795    2.4102    0.9702 C   0  0  0  0  0  0  0  0  0  0  0  0
    0.1572    3.5086    1.5825 C   0  0  0  0  0  0  0  0  0  0  0  0
    0.9018    4.6060    2.0205 C   0  0  0  0  0  0  0  0  0  0  0  0
    0.2356    5.7584    2.6376 C   0  0  0  0  0  0  0  0  0  0  0  0
   -0.8750    5.7177    3.3950 C   0  0  0  0  0  0  0  0  0  0  0  0
   -1.2137    7.1315    3.6486 C   0  0  0  0  0  0  0  0  0  0  0  0
   -2.1097    7.5218    4.3728 O   0  0  0  0  0  0  0  0  0  0  0  0
   -0.3214    7.8930    2.9156 N   0  0  0  0  0  0  0  0  0  0  0  0
    0.6843    7.0559    2.4152 N   0  0  0  0  0  0  0  0  0  0  0  0
    2.2868    4.5846    1.8064 C   0  0  0  0  0  0  0  0  0  0  0  0
    2.9099    3.4830    1.1920 C   0  0  0  0  0  0  0  0  0  0  0  0
    3.1444   -0.9635   -0.8415 C   0  0  0  0  0  0  0  0  0  0  0  0
    2.4459   -2.1003   -1.2988 C   0  0  0  0  0  0  0  0  0  0  0  0
    3.1298   -3.1344   -1.9056 C   0  0  0  0  0  0  0  0  0  0  0  0
    4.4498   -3.0983   -2.1382 N   0  0  0  0  0  0  0  0  0  0  0  0
    5.1099   -2.0002   -1.7038 C   0  0  0  0  0  0  0  0  0  0  0  0
    4.5342   -0.9380   -0.9941 C   0  0  0  0  0  0  0  0  0  0  0  0
    5.3043    0.0828   -0.4693 O   0  0  0  0  0  0  0  0  0  0  0  0
    6.5774   -0.2511   -0.0316 C   0  0  0  0  0  0  0  0  0  0  0  0
    7.6326    0.6037   -0.3683 C   0  0  0  0  0  0  0  0  0  0  0  0
    8.9448    0.2513   -0.0316 C   0  0  0  0  0  0  0  0  0  0  0  0
    9.1911   -0.9466    0.6331 C   0  0  0  0  0  0  0  0  0  0  0  0
   10.4514   -1.3044    0.9107 F   0  0  0  0  0  0  0  0  0  0  0  0
    8.1465   -1.7807    1.0094 C   0  0  0  0  0  0  0  0  0  0  0  0
    6.8340   -1.4157    0.7090 C   0  0  0  0  0  0  0  0  0  0  0  0
    3.8566    1.3773    0.0889 H   0  0  0  0  0  0  0  0  0  0  0  0
    0.1272    1.6071    0.6512 H   0  0  0  0  0  0  0  0  0  0  0  0
   -0.9251    3.4841    1.6964 H   0  0  0  0  0  0  0  0  0  0  0  0
   -1.4610    4.8860    3.7402 H   0  0  0  0  0  0  0  0  0  0  0  0
   -0.1414    8.8632    3.1404 H   0  0  0  0  0  0  0  0  0  0  0  0
    0.9059    7.2070    1.4283 H   0  0  0  0  0  0  0  0  0  0  0  0
    2.9019    5.4216    2.1321 H   0  0  0  0  0  0  0  0  0  0  0  0
    3.9879    3.5075    1.0551 H   0  0  0  0  0  0  0  0  0  0  0  0
    1.3685   -2.1887   -1.1802 H   0  0  0  0  0  0  0  0  0  0  0  0
    2.6141   -4.0319   -2.2346 H   0  0  0  0  0  0  0  0  0  0  0  0
    6.1733   -2.0256   -1.9305 H   0  0  0  0  0  0  0  0  0  0  0  0
    7.4495    1.5251   -0.9134 H   0  0  0  0  0  0  0  0  0  0  0  0
    9.7820    0.8902   -0.2985 H   0  0  0  0  0  0  0  0  0  0  0  0
    8.3583   -2.7158    1.5189 H   0  0  0  0  0  0  0  0  0  0  0  0
    6.0248   -2.0761    1.0118 H   0  0  0  0  0  0  0  0  0  0  0  0
  1  2  2  0  0  0  0
  2  3  1  0  0  0  0
  2 16  1  0  0  0  0
  3  4  1  0  0  0  0
  3 30  1  0  0  0  0
  4  5  2  0  0  0  0
  4 15  1  0  0  0  0
  5  6  1  0  0  0  0
  5 31  1  0  0  0  0
  6  7  2  0  0  0  0
  6 32  1  0  0  0  0
  7  8  1  0  0  0  0
  7 14  1  0  0  0  0
  8  9  2  0  0  0  0
  8 13  1  0  0  0  0
  9 10  1  0  0  0  0
  9 33  1  0  0  0  0
 10 11  2  0  0  0  0
 10 12  1  0  0  0  0
 12 13  1  0  0  0  0
 12 34  1  0  0  0  0
 13 35  1  0  0  0  0
 14 15  2  0  0  0  0
 14 36  1  0  0  0  0
 15 37  1  0  0  0  0
 16 17  2  0  0  0  0
 16 21  1  0  0  0  0
 17 18  1  0  0  0  0
 17 38  1  0  0  0  0
 18 19  2  0  0  0  0
 18 39  1  0  0  0  0
 19 20  1  0  0  0  0
 20 21  2  0  0  0  0
 20 40  1  0  0  0  0
 21 22  1  0  0  0  0
 22 23  1  0  0  0  0
 23 24  2  0  0  0  0
 23 29  1  0  0  0  0
 24 25  1  0  0  0  0
 24 41  1  0  0  0  0
 25 26  2  0  0  0  0
 25 42  1  0  0  0  0
 26 27  1  0  0  0  0
 26 28  1  0  0  0  0
 28 29  2  0  0  0  0
 28 43  1  0  0  0  0
 29 44  1  0  0  0  0
M  END
$$$$
