
 OpenBabel01122422413D

 46 49  0  0  0  0  0  0  0  0999 V2000
    0.5558    1.9193   -0.7423 N   0  0  0  0  0  0  0  0  0  0  0  0
    0.4991    0.9356   -1.6901 C   0  0  0  0  0  0  0  0  0  0  0  0
   -0.4805    0.2147   -1.8023 O   0  0  0  0  0  0  0  0  0  0  0  0
    1.6543    0.8306   -2.6093 C   0  0  0  0  0  0  0  0  0  0  0  0
    2.9418    1.2018   -2.2018 C   0  0  0  0  0  0  0  0  0  0  0  0
    4.0020    1.1388   -3.1031 C   0  0  0  0  0  0  0  0  0  0  0  0
    3.7836    0.7158   -4.4195 C   0  0  0  0  0  0  0  0  0  0  0  0
    4.9014    0.6626   -5.4217 C   0  0  0  0  0  0  0  0  0  0  0  0
    5.8321    1.7238   -5.1639 O   0  0  0  0  0  0  0  0  0  0  0  0
    6.6425    2.0334   -6.2204 C   0  0  0  0  0  0  0  0  0  0  0  0
    7.1617    3.3278   -6.2451 C   0  0  0  0  0  0  0  0  0  0  0  0
    7.9401    3.7524   -7.3299 C   0  0  0  0  0  0  0  0  0  0  0  0
    8.2093    2.8939   -8.4093 C   0  0  0  0  0  0  0  0  0  0  0  0
    8.9605    3.3250   -9.6102 C   0  0  0  0  0  0  0  0  0  0  0  0
    9.7728    2.4129  -10.3104 C   0  0  0  0  0  0  0  0  0  0  0  0
   10.4055    2.7594  -11.5023 C   0  0  0  0  0  0  0  0  0  0  0  0
   10.2486    4.0372  -12.0275 C   0  0  0  0  0  0  0  0  0  0  0  0
    9.4625    4.9768  -11.3495 C   0  0  0  0  0  0  0  0  0  0  0  0
    9.2655    6.2739  -11.8877 N   0  0  0  0  0  0  0  0  0  0  0  0
    9.6775    6.7702  -13.1023 C   0  0  0  0  0  0  0  0  0  0  0  0
    9.3037    8.0209  -13.2428 N   0  0  0  0  0  0  0  0  0  0  0  0
    8.6420    8.2634  -12.0780 C   0  0  0  0  0  0  0  0  0  0  0  0
    8.5799    7.2400  -11.2259 N   0  0  0  0  0  0  0  0  0  0  0  0
    8.8365    4.6227  -10.1397 C   0  0  0  0  0  0  0  0  0  0  0  0
    7.7058    1.5841   -8.3334 C   0  0  0  0  0  0  0  0  0  0  0  0
    6.9535    1.1494   -7.2467 C   0  0  0  0  0  0  0  0  0  0  0  0
    2.5030    0.2940   -4.7910 C   0  0  0  0  0  0  0  0  0  0  0  0
    2.2839   -0.1599   -6.0334 F   0  0  0  0  0  0  0  0  0  0  0  0
    1.4388    0.3459   -3.9007 C   0  0  0  0  0  0  0  0  0  0  0  0
   -0.2860    2.0656   -0.1997 H   0  0  0  0  0  0  0  0  0  0  0  0
    1.2146    2.6838   -0.8016 H   0  0  0  0  0  0  0  0  0  0  0  0
    3.1374    1.5261   -1.1829 H   0  0  0  0  0  0  0  0  0  0  0  0
    4.9999    1.4328   -2.7804 H   0  0  0  0  0  0  0  0  0  0  0  0
    4.4752    0.7734   -6.4278 H   0  0  0  0  0  0  0  0  0  0  0  0
    5.4098   -0.3049   -5.3303 H   0  0  0  0  0  0  0  0  0  0  0  0
    6.9426    4.0162   -5.4338 H   0  0  0  0  0  0  0  0  0  0  0  0
    8.3206    4.7719   -7.3223 H   0  0  0  0  0  0  0  0  0  0  0  0
    9.9149    1.4006   -9.9365 H   0  0  0  0  0  0  0  0  0  0  0  0
   11.0090    2.0214  -12.0256 H   0  0  0  0  0  0  0  0  0  0  0  0
   10.7562    4.2620  -12.9596 H   0  0  0  0  0  0  0  0  0  0  0  0
   10.2171    6.1903  -13.8351 H   0  0  0  0  0  0  0  0  0  0  0  0
    8.1877    9.2183  -11.8470 H   0  0  0  0  0  0  0  0  0  0  0  0
    8.2059    5.3503   -9.6296 H   0  0  0  0  0  0  0  0  0  0  0  0
    7.8657    0.8775   -9.1441 H   0  0  0  0  0  0  0  0  0  0  0  0
    6.6100    0.1207   -7.2452 H   0  0  0  0  0  0  0  0  0  0  0  0
    0.4523    0.0266   -4.2237 H   0  0  0  0  0  0  0  0  0  0  0  0
  1  2  1  0  0  0  0
  1 30  1  0  0  0  0
  1 31  1  0  0  0  0
  2  3  2  0  0  0  0
  2  4  1  0  0  0  0
  4  5  2  0  0  0  0
  4 29  1  0  0  0  0
  5  6  1  0  0  0  0
  5 32  1  0  0  0  0
  6  7  2  0  0  0  0
  6 33  1  0  0  0  0
  7  8  1  0  0  0  0
  7 27  1  0  0  0  0
  8  9  1  0  0  0  0
  8 34  1  0  0  0  0
  8 35  1  0  0  0  0
  9 10  1  0  0  0  0
 10 11  2  0  0  0  0
 10 26  1  0  0  0  0
 11 12  1  0  0  0  0
 11 36  1  0  0  0  0
 12 13  2  0  0  0  0
 12 37  1  0  0  0  0
 13 14  1  0  0  0  0
 13 25  1  0  0  0  0
 14 15  2  0  0  0  0
 14 24  1  0  0  0  0
 15 16  1  0  0  0  0
 15 38  1  0  0  0  0
 16 17  2  0  0  0  0
 16 39  1  0  0  0  0
 17 18  1  0  0  0  0
 17 40  1  0  0  0  0
 18 19  1  0  0  0  0
 18 24  2  0  0  0  0
 19 20  1  0  0  0  0
 19 23  1  0  0  0  0
 20 21  2  0  0  0  0
 20 41  1  0  0  0  0
 21 22  1  0  0  0  0
 22 23  2  0  0  0  0
 22 42  1  0  0  0  0
 24 43  1  0  0  0  0
 25 26  2  0  0  0  0
 25 44  1  0  0  0  0
 26 45  1  0  0  0  0
 27 28  1  0  0  0  0
 27 29  2  0  0  0  0
 29 46  1  0  0  0  0
M  END
$$$$
