
 OpenBabel01122422413D

 46 49  0  0  0  0  0  0  0  0999 V2000
    1.7970   -0.2579    1.4149 C   0  0  0  0  0  0  0  0  0  0  0  0
    2.7778    0.0309    0.4169 O   0  0  0  0  0  0  0  0  0  0  0  0
    4.0467   -0.3132    0.7562 C   0  0  0  0  0  0  0  0  0  0  0  0
    4.3871   -0.8289    1.8108 O   0  0  0  0  0  0  0  0  0  0  0  0
    4.9867    0.0307   -0.3506 C   0  0  0  0  0  0  0  0  0  0  0  0
    6.2899   -0.2862   -0.2116 C   0  0  0  0  0  0  0  0  0  0  0  0
    7.1850    0.0366   -1.2286 N   0  0  0  0  0  0  0  0  0  0  0  0
    8.5313   -0.1854   -1.3008 C   0  0  0  0  0  0  0  0  0  0  0  0
    8.9425    0.3430   -2.5108 C   0  0  0  0  0  0  0  0  0  0  0  0
   10.3192    0.3420   -3.0109 C   0  0  0  0  0  0  0  0  0  0  0  0
   11.2176   -0.1893   -2.3663 O   0  0  0  0  0  0  0  0  0  0  0  0
   10.4712    1.0239   -4.2093 N   0  0  0  0  0  0  0  0  0  0  0  0
   11.6852    1.2080   -4.9076 C   0  0  0  0  0  0  0  0  0  0  0  0
   12.8139    0.4252   -4.6604 C   0  0  0  0  0  0  0  0  0  0  0  0
   14.0131    0.6760   -5.3259 C   0  0  0  0  0  0  0  0  0  0  0  0
   15.1699   -0.1210   -5.0416 C   0  0  0  0  0  0  0  0  0  0  0  0
   16.1141   -0.7567   -4.8148 N   0  0  0  0  0  0  0  0  0  0  0  0
   14.0920    1.7219   -6.2481 C   0  0  0  0  0  0  0  0  0  0  0  0
   12.9797    2.5370   -6.5263 C   0  0  0  0  0  0  0  0  0  0  0  0
   13.1140    3.7084   -7.4275 C   0  0  0  0  0  0  0  0  0  0  0  0
   12.0815    4.1077   -8.2924 C   0  0  0  0  0  0  0  0  0  0  0  0
   12.2094    5.2427   -9.1034 C   0  0  0  0  0  0  0  0  0  0  0  0
   13.3791    5.9970   -9.0778 C   0  0  0  0  0  0  0  0  0  0  0  0
   14.4238    5.6162   -8.2448 C   0  0  0  0  0  0  0  0  0  0  0  0
   14.2888    4.4893   -7.4282 C   0  0  0  0  0  0  0  0  0  0  0  0
   11.7667    2.2328   -5.8658 C   0  0  0  0  0  0  0  0  0  0  0  0
    7.8646    0.8905   -3.1899 N   0  0  0  0  0  0  0  0  0  0  0  0
    6.8237    0.6852   -2.4059 C   0  0  0  0  0  0  0  0  0  0  0  0
    5.4472    1.0092   -2.5618 C   0  0  0  0  0  0  0  0  0  0  0  0
    4.5694    0.6999   -1.5842 C   0  0  0  0  0  0  0  0  0  0  0  0
    0.8115   -0.0542    0.9861 H   0  0  0  0  0  0  0  0  0  0  0  0
    1.9389    0.3930    2.2830 H   0  0  0  0  0  0  0  0  0  0  0  0
    1.8330   -1.3119    1.7075 H   0  0  0  0  0  0  0  0  0  0  0  0
    6.6954   -0.7836    0.6643 H   0  0  0  0  0  0  0  0  0  0  0  0
    9.0849   -0.6784   -0.5131 H   0  0  0  0  0  0  0  0  0  0  0  0
    9.6407    1.5211   -4.5211 H   0  0  0  0  0  0  0  0  0  0  0  0
   12.7839   -0.4002   -3.9543 H   0  0  0  0  0  0  0  0  0  0  0  0
   15.0423    1.9052   -6.7489 H   0  0  0  0  0  0  0  0  0  0  0  0
   11.1587    3.5357   -8.3524 H   0  0  0  0  0  0  0  0  0  0  0  0
   11.3913    5.5379   -9.7555 H   0  0  0  0  0  0  0  0  0  0  0  0
   13.4761    6.8802   -9.7038 H   0  0  0  0  0  0  0  0  0  0  0  0
   15.3420    6.1979   -8.2188 H   0  0  0  0  0  0  0  0  0  0  0  0
   15.1199    4.2412   -6.7706 H   0  0  0  0  0  0  0  0  0  0  0  0
   10.8910    2.8513   -6.0536 H   0  0  0  0  0  0  0  0  0  0  0  0
    5.1310    1.5047   -3.4735 H   0  0  0  0  0  0  0  0  0  0  0  0
    3.5206    0.9546   -1.7081 H   0  0  0  0  0  0  0  0  0  0  0  0
  1  2  1  0  0  0  0
  1 31  1  0  0  0  0
  1 32  1  0  0  0  0
  1 33  1  0  0  0  0
  2  3  1  0  0  0  0
  3  4  2  0  0  0  0
  3  5  1  0  0  0  0
  5  6  2  0  0  0  0
  5 30  1  0  0  0  0
  6  7  1  0  0  0  0
  6 34  1  0  0  0  0
  7  8  1  0  0  0  0
  7 28  1  0  0  0  0
  8  9  2  0  0  0  0
  8 35  1  0  0  0  0
  9 10  1  0  0  0  0
  9 27  1  0  0  0  0
 10 11  2  0  0  0  0
 10 12  1  0  0  0  0
 12 13  1  0  0  0  0
 12 36  1  0  0  0  0
 13 14  2  0  0  0  0
 13 26  1  0  0  0  0
 14 15  1  0  0  0  0
 14 37  1  0  0  0  0
 15 16  1  0  0  0  0
 15 18  2  0  0  0  0
 16 17  3  0  0  0  0
 18 19  1  0  0  0  0
 18 38  1  0  0  0  0
 19 20  1  0  0  0  0
 19 26  2  0  0  0  0
 20 21  2  0  0  0  0
 20 25  1  0  0  0  0
 21 22  1  0  0  0  0
 21 39  1  0  0  0  0
 22 23  2  0  0  0  0
 22 40  1  0  0  0  0
 23 24  1  0  0  0  0
 23 41  1  0  0  0  0
 24 25  2  0  0  0  0
 24 42  1  0  0  0  0
 25 43  1  0  0  0  0
 26 44  1  0  0  0  0
 27 28  2  0  0  0  0
 28 29  1  0  0  0  0
 29 30  2  0  0  0  0
 29 45  1  0  0  0  0
 30 46  1  0  0  0  0
M  END
$$$$
