
 OpenBabel01122422413D

 55 58  0  0  1  0  0  0  0  0999 V2000
    2.0869    1.8400    2.3577 C   0  0  0  0  0  0  0  0  0  0  0  0
    3.3919    2.0593    1.8248 O   0  0  0  0  0  0  0  0  0  0  0  0
    3.4418    2.2287    0.4659 C   0  0  0  0  0  0  0  0  0  0  0  0
    2.3792    2.6965   -0.3055 C   0  0  0  0  0  0  0  0  0  0  0  0
    2.5088    2.7750   -1.6855 C   0  0  0  0  0  0  0  0  0  0  0  0
    3.7095    2.4142   -2.2932 C   0  0  0  0  0  0  0  0  0  0  0  0
    4.8438    2.0705   -1.5357 C   0  0  0  0  0  0  0  0  0  0  0  0
    6.2425    1.9428   -2.1685 C   0  0  3  0  0  0  0  0  0  0  0  0
    6.2915    0.9243   -3.2147 N   0  0  0  0  0  0  0  0  0  0  0  0
    5.8754    1.0585   -4.5213 C   0  0  0  0  0  0  0  0  0  0  0  0
    5.3539    2.0548   -4.9901 O   0  0  0  0  0  0  0  0  0  0  0  0
    6.1184   -0.1255   -5.3405 C   0  0  0  0  0  0  0  0  0  0  0  0
    5.7074   -0.3346   -6.6413 C   0  0  0  0  0  0  0  0  0  0  0  0
    6.2516   -1.5364   -6.9784 N   0  0  0  0  0  0  0  0  0  0  0  0
    6.2172   -2.1961   -8.2711 C   0  0  0  0  0  0  0  0  0  0  0  0
    5.0269   -3.1015   -8.3852 C   0  0  0  0  0  0  0  0  0  0  0  0
    3.8076   -2.6543   -8.9061 C   0  0  0  0  0  0  0  0  0  0  0  0
    2.7130   -3.5134   -8.9320 C   0  0  0  0  0  0  0  0  0  0  0  0
    2.8757   -4.7979   -8.4423 C   0  0  0  0  0  0  0  0  0  0  0  0
    4.0407   -5.2701   -7.9509 N   0  0  0  0  0  0  0  0  0  0  0  0
    5.0852   -4.4134   -7.9255 C   0  0  0  0  0  0  0  0  0  0  0  0
    6.9429   -2.0630   -5.9485 N   0  0  0  0  0  0  0  0  0  0  0  0
    6.8603   -1.2109   -4.9322 N   0  0  0  0  0  0  0  0  0  0  0  0
    6.9272    3.2691   -2.5452 C   0  0  0  0  0  0  0  0  0  0  0  0
    6.1271    4.3586   -2.9709 C   0  0  0  0  0  0  0  0  0  0  0  0
    6.6483    5.6182   -3.2388 C   0  0  0  0  0  0  0  0  0  0  0  0
    5.8175    6.6141   -3.5733 F   0  0  0  0  0  0  0  0  0  0  0  0
    8.0001    5.8525   -3.1352 C   0  0  0  0  0  0  0  0  0  0  0  0
    8.8285    4.8038   -2.7435 C   0  0  0  0  0  0  0  0  0  0  0  0
    8.3134    3.5209   -2.4456 C   0  0  0  0  0  0  0  0  0  0  0  0
    9.2586    2.7073   -1.8818 O   0  0  0  0  0  0  0  0  0  0  0  0
    9.4295    1.3951   -2.3929 C   0  0  0  0  0  0  0  0  0  0  0  0
    4.6751    1.9502   -0.1430 C   0  0  0  0  0  0  0  0  0  0  0  0
    2.1921    1.5709    3.4123 H   0  0  0  0  0  0  0  0  0  0  0  0
    1.5848    1.0093    1.8475 H   0  0  0  0  0  0  0  0  0  0  0  0
    1.4797    2.7503    2.3115 H   0  0  0  0  0  0  0  0  0  0  0  0
    1.4449    3.0215    0.1382 H   0  0  0  0  0  0  0  0  0  0  0  0
    1.6883    3.1496   -2.2923 H   0  0  0  0  0  0  0  0  0  0  0  0
    3.7632    2.5064   -3.3740 H   0  0  0  0  0  0  0  0  0  0  0  0
    6.8672    1.5113   -1.3740 H   0  0  0  0  0  0  0  0  0  0  0  0
    6.6234    0.0039   -2.9487 H   0  0  0  0  0  0  0  0  0  0  0  0
    5.1129    0.2615   -7.3169 H   0  0  0  0  0  0  0  0  0  0  0  0
    7.1552   -2.7489   -8.4026 H   0  0  0  0  0  0  0  0  0  0  0  0
    6.1927   -1.4174   -9.0424 H   0  0  0  0  0  0  0  0  0  0  0  0
    3.6970   -1.6401   -9.2813 H   0  0  0  0  0  0  0  0  0  0  0  0
    1.7526   -3.1870   -9.3154 H   0  0  0  0  0  0  0  0  0  0  0  0
    2.0478   -5.5012   -8.4263 H   0  0  0  0  0  0  0  0  0  0  0  0
    5.9992   -4.8278   -7.5044 H   0  0  0  0  0  0  0  0  0  0  0  0
    5.0544    4.2786   -3.0800 H   0  0  0  0  0  0  0  0  0  0  0  0
    8.3912    6.8444   -3.3325 H   0  0  0  0  0  0  0  0  0  0  0  0
    9.8944    4.9943   -2.6340 H   0  0  0  0  0  0  0  0  0  0  0  0
   10.4400    1.2986   -2.8036 H   0  0  0  0  0  0  0  0  0  0  0  0
    8.7291    1.1141   -3.1763 H   0  0  0  0  0  0  0  0  0  0  0  0
    9.3481    0.7034   -1.5486 H   0  0  0  0  0  0  0  0  0  0  0  0
    5.5083    1.6505    0.4898 H   0  0  0  0  0  0  0  0  0  0  0  0
  1  2  1  0  0  0  0
  1 34  1  0  0  0  0
  1 35  1  0  0  0  0
  1 36  1  0  0  0  0
  2  3  1  0  0  0  0
  3  4  2  0  0  0  0
  3 33  1  0  0  0  0
  4  5  1  0  0  0  0
  4 37  1  0  0  0  0
  5  6  2  0  0  0  0
  5 38  1  0  0  0  0
  6  7  1  0  0  0  0
  6 39  1  0  0  0  0
  7  8  1  0  0  0  0
  7 33  2  0  0  0  0
  8  9  1  0  0  0  0
  8 24  1  0  0  0  0
  8 40  1  0  0  0  0
  9 10  1  0  0  0  0
  9 41  1  0  0  0  0
 10 11  2  0  0  0  0
 10 12  1  0  0  0  0
 12 13  2  0  0  0  0
 12 23  1  0  0  0  0
 13 14  1  0  0  0  0
 13 42  1  0  0  0  0
 14 15  1  0  0  0  0
 14 22  1  0  0  0  0
 15 16  1  0  0  0  0
 15 43  1  0  0  0  0
 15 44  1  0  0  0  0
 16 17  2  0  0  0  0
 16 21  1  0  0  0  0
 17 18  1  0  0  0  0
 17 45  1  0  0  0  0
 18 19  2  0  0  0  0
 18 46  1  0  0  0  0
 19 20  1  0  0  0  0
 19 47  1  0  0  0  0
 20 21  2  0  0  0  0
 21 48  1  0  0  0  0
 22 23  2  0  0  0  0
 24 25  2  0  0  0  0
 24 30  1  0  0  0  0
 25 26  1  0  0  0  0
 25 49  1  0  0  0  0
 26 27  1  0  0  0  0
 26 28  2  0  0  0  0
 28 29  1  0  0  0  0
 28 50  1  0  0  0  0
 29 30  2  0  0  0  0
 29 51  1  0  0  0  0
 30 31  1  0  0  0  0
 31 32  1  0  0  0  0
 32 52  1  0  0  0  0
 32 53  1  0  0  0  0
 32 54  1  0  0  0  0
 33 55  1  0  0  0  0
M  END
$$$$
