
 OpenBabel01122422413D

 41 44  0  0  0  0  0  0  0  0999 V2000
    1.1040   -0.0689   -0.1249 O   0  0  0  0  0  0  0  0  0  0  0  0
    2.3348   -0.0494   -0.0114 C   0  0  0  0  0  0  0  0  0  0  0  0
    3.0998    0.8222   -0.7627 N   0  0  0  0  0  0  0  0  0  0  0  0
    2.4646    1.6776   -1.7429 C   0  0  0  0  0  0  0  0  0  0  0  0
    2.0725    2.9883   -1.1210 C   0  0  0  0  0  0  0  0  0  0  0  0
    0.8645    3.2408   -0.5773 C   0  0  0  0  0  0  0  0  0  0  0  0
    0.5717    4.5332    0.0481 C   0  0  0  0  0  0  0  0  0  0  0  0
   -0.6573    4.7923    0.6624 C   0  0  0  0  0  0  0  0  0  0  0  0
   -0.8906    6.0307    1.2692 C   0  0  0  0  0  0  0  0  0  0  0  0
    0.1004    7.0137    1.2659 C   0  0  0  0  0  0  0  0  0  0  0  0
    1.3312    6.7623    0.6586 C   0  0  0  0  0  0  0  0  0  0  0  0
    1.5598    5.5241    0.0545 C   0  0  0  0  0  0  0  0  0  0  0  0
    2.7937    5.2576   -0.5474 N   0  0  0  0  0  0  0  0  0  0  0  0
    3.1097    4.0622   -1.1337 C   0  0  0  0  0  0  0  0  0  0  0  0
    4.2190    3.8787   -1.6346 O   0  0  0  0  0  0  0  0  0  0  0  0
    2.9993   -0.9375    0.9033 C   0  0  0  0  0  0  0  0  0  0  0  0
    2.4673   -1.9317    1.6819 C   0  0  0  0  0  0  0  0  0  0  0  0
    3.5465   -2.4508    2.4350 C   0  0  0  0  0  0  0  0  0  0  0  0
    3.4708   -3.5257    3.4164 C   0  0  0  0  0  0  0  0  0  0  0  0
    2.5328   -4.5546    3.2499 C   0  0  0  0  0  0  0  0  0  0  0  0
    1.7412   -4.5874    2.1654 F   0  0  0  0  0  0  0  0  0  0  0  0
    2.3719   -5.5656    4.1908 C   0  0  0  0  0  0  0  0  0  0  0  0
    3.1606   -5.5508    5.3294 C   0  0  0  0  0  0  0  0  0  0  0  0
    2.9971   -6.5060    6.2541 F   0  0  0  0  0  0  0  0  0  0  0  0
    4.1045   -4.5538    5.5314 C   0  0  0  0  0  0  0  0  0  0  0  0
    4.2564   -3.5485    4.5721 C   0  0  0  0  0  0  0  0  0  0  0  0
    5.1456   -2.5774    4.8209 F   0  0  0  0  0  0  0  0  0  0  0  0
    4.6807   -1.8044    2.1127 N   0  0  0  0  0  0  0  0  0  0  0  0
    4.3375   -0.8695    1.1408 O   0  0  0  0  0  0  0  0  0  0  0  0
    4.1111    0.8140   -0.6718 H   0  0  0  0  0  0  0  0  0  0  0  0
    1.5946    1.1452   -2.1520 H   0  0  0  0  0  0  0  0  0  0  0  0
    3.1545    1.8218   -2.5776 H   0  0  0  0  0  0  0  0  0  0  0  0
    0.0982    2.4724   -0.5360 H   0  0  0  0  0  0  0  0  0  0  0  0
   -1.4380    4.0368    0.6812 H   0  0  0  0  0  0  0  0  0  0  0  0
   -1.8475    6.2279    1.7475 H   0  0  0  0  0  0  0  0  0  0  0  0
   -0.0863    7.9745    1.7395 H   0  0  0  0  0  0  0  0  0  0  0  0
    2.0971    7.5322    0.6659 H   0  0  0  0  0  0  0  0  0  0  0  0
    3.5254    5.9541   -0.5401 H   0  0  0  0  0  0  0  0  0  0  0  0
    1.4287   -2.2329    1.7042 H   0  0  0  0  0  0  0  0  0  0  0  0
    1.6309   -6.3426    4.0401 H   0  0  0  0  0  0  0  0  0  0  0  0
    4.7044   -4.5437    6.4342 H   0  0  0  0  0  0  0  0  0  0  0  0
  1  2  2  0  0  0  0
  2  3  1  0  0  0  0
  2 16  1  0  0  0  0
  3  4  1  0  0  0  0
  3 30  1  0  0  0  0
  4  5  1  0  0  0  0
  4 31  1  0  0  0  0
  4 32  1  0  0  0  0
  5  6  2  0  0  0  0
  5 14  1  0  0  0  0
  6  7  1  0  0  0  0
  6 33  1  0  0  0  0
  7  8  2  0  0  0  0
  7 12  1  0  0  0  0
  8  9  1  0  0  0  0
  8 34  1  0  0  0  0
  9 10  2  0  0  0  0
  9 35  1  0  0  0  0
 10 11  1  0  0  0  0
 10 36  1  0  0  0  0
 11 12  2  0  0  0  0
 11 37  1  0  0  0  0
 12 13  1  0  0  0  0
 13 14  1  0  0  0  0
 13 38  1  0  0  0  0
 14 15  2  0  0  0  0
 16 17  2  0  0  0  0
 16 29  1  0  0  0  0
 17 18  1  0  0  0  0
 17 39  1  0  0  0  0
 18 19  1  0  0  0  0
 18 28  2  0  0  0  0
 19 20  2  0  0  0  0
 19 26  1  0  0  0  0
 20 21  1  0  0  0  0
 20 22  1  0  0  0  0
 22 23  2  0  0  0  0
 22 40  1  0  0  0  0
 23 24  1  0  0  0  0
 23 25  1  0  0  0  0
 25 26  2  0  0  0  0
 25 41  1  0  0  0  0
 26 27  1  0  0  0  0
 28 29  1  0  0  0  0
M  END
$$$$
