
 OpenBabel01122422413D

 49 52  0  0  0  0  0  0  0  0999 V2000
    0.9873   -0.1628    0.0413 C   0  0  0  0  0  0  0  0  0  0  0  0
    2.4386   -0.2235   -0.1717 N   0  0  0  0  0  0  0  0  0  0  0  0
    3.1669    0.3122   -1.3348 C   0  0  0  0  0  0  0  0  0  0  0  0
    4.3804    0.1861   -1.3751 O   0  0  0  0  0  0  0  0  0  0  0  0
    2.3940    0.9490   -2.4410 C   0  0  0  0  0  0  0  0  0  0  0  0
    1.4120    1.8436   -2.2196 C   0  0  0  0  0  0  0  0  0  0  0  0
    0.6289    2.3843   -3.3056 C   0  0  0  0  0  0  0  0  0  0  0  0
    0.9582    2.1203   -4.5697 C   0  0  0  0  0  0  0  0  0  0  0  0
    2.0488    1.3193   -4.8700 N   0  0  0  0  0  0  0  0  0  0  0  0
    2.3679    1.0687   -6.2805 C   0  0  0  0  0  0  0  0  0  0  0  0
    1.6329   -0.1390   -6.8156 C   0  0  0  0  0  0  0  0  0  0  0  0
    0.3486   -0.0192   -7.3640 C   0  0  0  0  0  0  0  0  0  0  0  0
   -0.3600   -1.1578   -7.7298 C   0  0  0  0  0  0  0  0  0  0  0  0
   -1.6017   -1.0337   -8.2164 F   0  0  0  0  0  0  0  0  0  0  0  0
    0.1896   -2.4270   -7.5779 C   0  0  0  0  0  0  0  0  0  0  0  0
    1.4803   -2.5547   -7.0718 C   0  0  0  0  0  0  0  0  0  0  0  0
    2.1983   -1.4176   -6.6930 C   0  0  0  0  0  0  0  0  0  0  0  0
    2.8034    0.6877   -3.8716 C   0  0  0  0  0  0  0  0  0  0  0  0
    3.7467   -0.0567   -4.1230 O   0  0  0  0  0  0  0  0  0  0  0  0
    3.2097   -0.9748    0.7477 C   0  0  0  0  0  0  0  0  0  0  0  0
    2.8920   -2.2487    1.1745 C   0  0  0  0  0  0  0  0  0  0  0  0
    4.0142   -2.6822    1.8920 C   0  0  0  0  0  0  0  0  0  0  0  0
    4.9775   -1.7656    1.9479 N   0  0  0  0  0  0  0  0  0  0  0  0
    4.4332   -0.6653    1.3548 N   0  0  0  0  0  0  0  0  0  0  0  0
    5.0035    0.6129    1.6000 C   0  0  0  0  0  0  0  0  0  0  0  0
    6.3772    0.7088    1.8597 C   0  0  0  0  0  0  0  0  0  0  0  0
    6.9408    1.9441    2.1749 C   0  0  0  0  0  0  0  0  0  0  0  0
    6.1336    3.0764    2.2682 C   0  0  0  0  0  0  0  0  0  0  0  0
    4.7629    2.9816    2.0253 C   0  0  0  0  0  0  0  0  0  0  0  0
    4.1946    1.7527    1.6743 C   0  0  0  0  0  0  0  0  0  0  0  0
    0.4270   -0.0112   -0.8783 H   0  0  0  0  0  0  0  0  0  0  0  0
    0.7809    0.6523    0.7463 H   0  0  0  0  0  0  0  0  0  0  0  0
    0.6086   -1.0883    0.4848 H   0  0  0  0  0  0  0  0  0  0  0  0
    1.1436    2.1748   -1.2243 H   0  0  0  0  0  0  0  0  0  0  0  0
   -0.2444    2.9863   -3.0686 H   0  0  0  0  0  0  0  0  0  0  0  0
    0.3704    2.5040   -5.3966 H   0  0  0  0  0  0  0  0  0  0  0  0
    3.4504    0.9301   -6.3947 H   0  0  0  0  0  0  0  0  0  0  0  0
    2.1174    1.9586   -6.8739 H   0  0  0  0  0  0  0  0  0  0  0  0
   -0.1213    0.9502   -7.4964 H   0  0  0  0  0  0  0  0  0  0  0  0
   -0.3891   -3.3029   -7.8521 H   0  0  0  0  0  0  0  0  0  0  0  0
    1.9262   -3.5396   -6.9566 H   0  0  0  0  0  0  0  0  0  0  0  0
    3.2013   -1.5363   -6.2828 H   0  0  0  0  0  0  0  0  0  0  0  0
    2.0195   -2.8335    0.9285 H   0  0  0  0  0  0  0  0  0  0  0  0
    4.1799   -3.6445    2.3641 H   0  0  0  0  0  0  0  0  0  0  0  0
    7.0178   -0.1697    1.8005 H   0  0  0  0  0  0  0  0  0  0  0  0
    8.0095    2.0182    2.3594 H   0  0  0  0  0  0  0  0  0  0  0  0
    6.5741    4.0314    2.5446 H   0  0  0  0  0  0  0  0  0  0  0  0
    4.1375    3.8647    2.1359 H   0  0  0  0  0  0  0  0  0  0  0  0
    3.1186    1.7076    1.5467 H   0  0  0  0  0  0  0  0  0  0  0  0
  1  2  1  0  0  0  0
  1 31  1  0  0  0  0
  1 32  1  0  0  0  0
  1 33  1  0  0  0  0
  2  3  1  0  0  0  0
  2 20  1  0  0  0  0
  3  4  2  0  0  0  0
  3  5  1  0  0  0  0
  5  6  2  0  0  0  0
  5 18  1  0  0  0  0
  6  7  1  0  0  0  0
  6 34  1  0  0  0  0
  7  8  2  0  0  0  0
  7 35  1  0  0  0  0
  8  9  1  0  0  0  0
  8 36  1  0  0  0  0
  9 10  1  0  0  0  0
  9 18  1  0  0  0  0
 10 11  1  0  0  0  0
 10 37  1  0  0  0  0
 10 38  1  0  0  0  0
 11 12  2  0  0  0  0
 11 17  1  0  0  0  0
 12 13  1  0  0  0  0
 12 39  1  0  0  0  0
 13 14  1  0  0  0  0
 13 15  2  0  0  0  0
 15 16  1  0  0  0  0
 15 40  1  0  0  0  0
 16 17  2  0  0  0  0
 16 41  1  0  0  0  0
 17 42  1  0  0  0  0
 18 19  2  0  0  0  0
 20 21  2  0  0  0  0
 20 24  1  0  0  0  0
 21 22  1  0  0  0  0
 21 43  1  0  0  0  0
 22 23  2  0  0  0  0
 22 44  1  0  0  0  0
 23 24  1  0  0  0  0
 24 25  1  0  0  0  0
 25 26  2  0  0  0  0
 25 30  1  0  0  0  0
 26 27  1  0  0  0  0
 26 45  1  0  0  0  0
 27 28  2  0  0  0  0
 27 46  1  0  0  0  0
 28 29  1  0  0  0  0
 28 47  1  0  0  0  0
 29 30  2  0  0  0  0
 29 48  1  0  0  0  0
 30 49  1  0  0  0  0
M  END
$$$$
