
 OpenBabel01122422413D

 39 42  0  0  0  0  0  0  0  0999 V2000
    1.2440   -2.0876   -1.2342 C   0  0  0  0  0  0  0  0  0  0  0  0
    2.6720   -2.0880   -1.1782 O   0  0  0  0  0  0  0  0  0  0  0  0
    3.1958   -0.9246   -0.7241 C   0  0  0  0  0  0  0  0  0  0  0  0
    2.5738    0.0666   -0.3801 O   0  0  0  0  0  0  0  0  0  0  0  0
    4.6757   -0.9841   -0.7555 C   0  0  0  0  0  0  0  0  0  0  0  0
    5.3812   -2.1903   -0.7054 C   0  0  0  0  0  0  0  0  0  0  0  0
    6.7780   -2.1779   -0.7301 C   0  0  0  0  0  0  0  0  0  0  0  0
    7.4110   -3.3599   -0.6914 F   0  0  0  0  0  0  0  0  0  0  0  0
    7.4971   -0.9811   -0.8136 C   0  0  0  0  0  0  0  0  0  0  0  0
    8.9457   -0.9735   -0.8433 C   0  0  0  0  0  0  0  0  0  0  0  0
    9.6750   -0.0471   -1.4765 N   0  0  0  0  0  0  0  0  0  0  0  0
   10.9835   -0.4046   -1.2061 O   0  0  0  0  0  0  0  0  0  0  0  0
   10.9592   -1.5475   -0.4276 C   0  0  0  0  0  0  0  0  0  0  0  0
   12.1507   -2.1866    0.0526 C   0  0  0  0  0  0  0  0  0  0  0  0
   13.1854   -1.3753    0.3449 C   0  0  0  0  0  0  0  0  0  0  0  0
   14.4617   -1.8734    0.8969 C   0  0  0  0  0  0  0  0  0  0  0  0
   15.3805   -1.1017    1.1449 O   0  0  0  0  0  0  0  0  0  0  0  0
   14.5539   -3.2145    1.1178 N   0  0  0  0  0  0  0  0  0  0  0  0
   13.5352   -4.1202    0.8069 C   0  0  0  0  0  0  0  0  0  0  0  0
   13.7550   -5.4818    1.0173 C   0  0  0  0  0  0  0  0  0  0  0  0
   12.7641   -6.3869    0.6627 C   0  0  0  0  0  0  0  0  0  0  0  0
   12.9747   -7.6973    0.8403 F   0  0  0  0  0  0  0  0  0  0  0  0
   11.5636   -5.9553    0.1148 C   0  0  0  0  0  0  0  0  0  0  0  0
   11.3422   -4.5889   -0.0793 C   0  0  0  0  0  0  0  0  0  0  0  0
   12.3254   -3.6474    0.2666 C   0  0  0  0  0  0  0  0  0  0  0  0
    9.7086   -1.9214   -0.2048 N   0  0  0  0  0  0  0  0  0  0  0  0
    6.7712    0.2121   -0.8544 C   0  0  0  0  0  0  0  0  0  0  0  0
    7.3951    1.3980   -0.9048 F   0  0  0  0  0  0  0  0  0  0  0  0
    5.3780    0.2210   -0.8214 C   0  0  0  0  0  0  0  0  0  0  0  0
    0.9175   -3.0768   -1.5666 H   0  0  0  0  0  0  0  0  0  0  0  0
    0.8900   -1.3443   -1.9554 H   0  0  0  0  0  0  0  0  0  0  0  0
    0.8212   -1.8976   -0.2426 H   0  0  0  0  0  0  0  0  0  0  0  0
    4.8652   -3.1450   -0.6388 H   0  0  0  0  0  0  0  0  0  0  0  0
   13.1497   -0.2968    0.2222 H   0  0  0  0  0  0  0  0  0  0  0  0
   15.4342   -3.5379    1.4986 H   0  0  0  0  0  0  0  0  0  0  0  0
   14.6837   -5.8533    1.4364 H   0  0  0  0  0  0  0  0  0  0  0  0
   10.8057   -6.6820   -0.1628 H   0  0  0  0  0  0  0  0  0  0  0  0
   10.3916   -4.2840   -0.5117 H   0  0  0  0  0  0  0  0  0  0  0  0
    4.8545    1.1744   -0.8507 H   0  0  0  0  0  0  0  0  0  0  0  0
  1  2  1  0  0  0  0
  1 30  1  0  0  0  0
  1 31  1  0  0  0  0
  1 32  1  0  0  0  0
  2  3  1  0  0  0  0
  3  4  2  0  0  0  0
  3  5  1  0  0  0  0
  5  6  2  0  0  0  0
  5 29  1  0  0  0  0
  6  7  1  0  0  0  0
  6 33  1  0  0  0  0
  7  8  1  0  0  0  0
  7  9  2  0  0  0  0
  9 10  1  0  0  0  0
  9 27  1  0  0  0  0
 10 11  2  0  0  0  0
 10 26  1  0  0  0  0
 11 12  1  0  0  0  0
 12 13  1  0  0  0  0
 13 14  1  0  0  0  0
 13 26  2  0  0  0  0
 14 15  2  0  0  0  0
 14 25  1  0  0  0  0
 15 16  1  0  0  0  0
 15 34  1  0  0  0  0
 16 17  2  0  0  0  0
 16 18  1  0  0  0  0
 18 19  1  0  0  0  0
 18 35  1  0  0  0  0
 19 20  2  0  0  0  0
 19 25  1  0  0  0  0
 20 21  1  0  0  0  0
 20 36  1  0  0  0  0
 21 22  1  0  0  0  0
 21 23  2  0  0  0  0
 23 24  1  0  0  0  0
 23 37  1  0  0  0  0
 24 25  2  0  0  0  0
 24 38  1  0  0  0  0
 27 28  1  0  0  0  0
 27 29  2  0  0  0  0
 29 39  1  0  0  0  0
M  END
$$$$
