
 OpenBabel01122422413D

 43 46  0  0  0  0  0  0  0  0999 V2000
    1.0250   -0.1158    0.2590 O   0  0  0  0  0  0  0  0  0  0  0  0
    2.1521    0.1847   -0.1254 C   0  0  0  0  0  0  0  0  0  0  0  0
    2.7262   -0.2700   -1.2903 N   0  0  0  0  0  0  0  0  0  0  0  0
    2.0151   -1.1227   -2.1428 C   0  0  0  0  0  0  0  0  0  0  0  0
    0.6853   -0.8878   -2.4727 C   0  0  0  0  0  0  0  0  0  0  0  0
   -0.0474   -1.7427   -3.2183 N   0  0  0  0  0  0  0  0  0  0  0  0
    0.5552   -2.8998   -3.5658 C   0  0  0  0  0  0  0  0  0  0  0  0
   -0.1510   -3.9092   -4.2135 C   0  0  0  0  0  0  0  0  0  0  0  0
   -1.4376   -3.7180   -4.5492 F   0  0  0  0  0  0  0  0  0  0  0  0
    0.4183   -5.1462   -4.5025 C   0  0  0  0  0  0  0  0  0  0  0  0
    1.7417   -5.3800   -4.1610 C   0  0  0  0  0  0  0  0  0  0  0  0
    2.4823   -4.3645   -3.5521 C   0  0  0  0  0  0  0  0  0  0  0  0
    1.9184   -3.1311   -3.2412 C   0  0  0  0  0  0  0  0  0  0  0  0
    2.6658   -2.2130   -2.5909 N   0  0  0  0  0  0  0  0  0  0  0  0
    3.0233    1.0748    0.7018 C   0  0  0  0  0  0  0  0  0  0  0  0
    2.6449    1.2969    1.9660 C   0  0  0  0  0  0  0  0  0  0  0  0
    3.3728    2.2922    2.7760 C   0  0  0  0  0  0  0  0  0  0  0  0
    3.0381    2.4956    3.9337 O   0  0  0  0  0  0  0  0  0  0  0  0
    4.4750    3.0318    2.0865 C   0  0  0  0  0  0  0  0  0  0  0  0
    5.1841    4.0719    2.6525 O   0  0  0  0  0  0  0  0  0  0  0  0
    5.2909    4.0853    4.0783 C   0  0  0  0  0  0  0  0  0  0  0  0
    6.5562    4.8345    4.4180 C   0  0  0  0  0  0  0  0  0  0  0  0
    6.6982    6.1911    4.0910 C   0  0  0  0  0  0  0  0  0  0  0  0
    7.8908    6.8634    4.3616 C   0  0  0  0  0  0  0  0  0  0  0  0
    8.9511    6.1881    4.9636 C   0  0  0  0  0  0  0  0  0  0  0  0
    8.8179    4.8434    5.3040 C   0  0  0  0  0  0  0  0  0  0  0  0
    7.6264    4.1697    5.0338 C   0  0  0  0  0  0  0  0  0  0  0  0
    4.7465    2.6767    0.8223 C   0  0  0  0  0  0  0  0  0  0  0  0
    4.1041    1.6948    0.1076 O   0  0  0  0  0  0  0  0  0  0  0  0
    3.7338   -0.3488   -1.3314 H   0  0  0  0  0  0  0  0  0  0  0  0
    0.1628    0.0065   -2.1503 H   0  0  0  0  0  0  0  0  0  0  0  0
   -0.1858   -5.9144   -4.9752 H   0  0  0  0  0  0  0  0  0  0  0  0
    2.1959   -6.3483   -4.3562 H   0  0  0  0  0  0  0  0  0  0  0  0
    3.5182   -4.5524   -3.2766 H   0  0  0  0  0  0  0  0  0  0  0  0
    1.7944    0.8130    2.4348 H   0  0  0  0  0  0  0  0  0  0  0  0
    5.3585    3.0688    4.4818 H   0  0  0  0  0  0  0  0  0  0  0  0
    4.4275    4.5991    4.5168 H   0  0  0  0  0  0  0  0  0  0  0  0
    5.8815    6.7247    3.6077 H   0  0  0  0  0  0  0  0  0  0  0  0
    7.9960    7.9117    4.0951 H   0  0  0  0  0  0  0  0  0  0  0  0
    9.8832    6.7089    5.1656 H   0  0  0  0  0  0  0  0  0  0  0  0
    9.6435    4.3162    5.7735 H   0  0  0  0  0  0  0  0  0  0  0  0
    7.5420    3.1180    5.2983 H   0  0  0  0  0  0  0  0  0  0  0  0
    5.5110    3.1575    0.2271 H   0  0  0  0  0  0  0  0  0  0  0  0
  1  2  2  0  0  0  0
  2  3  1  0  0  0  0
  2 15  1  0  0  0  0
  3  4  1  0  0  0  0
  3 30  1  0  0  0  0
  4  5  2  0  0  0  0
  4 14  1  0  0  0  0
  5  6  1  0  0  0  0
  5 31  1  0  0  0  0
  6  7  2  0  0  0  0
  7  8  1  0  0  0  0
  7 13  1  0  0  0  0
  8  9  1  0  0  0  0
  8 10  2  0  0  0  0
 10 11  1  0  0  0  0
 10 32  1  0  0  0  0
 11 12  2  0  0  0  0
 11 33  1  0  0  0  0
 12 13  1  0  0  0  0
 12 34  1  0  0  0  0
 13 14  2  0  0  0  0
 15 16  2  0  0  0  0
 15 29  1  0  0  0  0
 16 17  1  0  0  0  0
 16 35  1  0  0  0  0
 17 18  2  0  0  0  0
 17 19  1  0  0  0  0
 19 20  1  0  0  0  0
 19 28  2  0  0  0  0
 20 21  1  0  0  0  0
 21 22  1  0  0  0  0
 21 36  1  0  0  0  0
 21 37  1  0  0  0  0
 22 23  2  0  0  0  0
 22 27  1  0  0  0  0
 23 24  1  0  0  0  0
 23 38  1  0  0  0  0
 24 25  2  0  0  0  0
 24 39  1  0  0  0  0
 25 26  1  0  0  0  0
 25 40  1  0  0  0  0
 26 27  2  0  0  0  0
 26 41  1  0  0  0  0
 27 42  1  0  0  0  0
 28 29  1  0  0  0  0
 28 43  1  0  0  0  0
M  END
$$$$
