
 OpenBabel01122422413D

 46 49  0  0  0  0  0  0  0  0999 V2000
    5.4872   -0.3270   -0.3522 O   0  0  0  0  0  0  0  0  0  0  0  0
    4.5747   -0.6938   -1.1071 C   0  0  0  0  0  0  0  0  0  0  0  0
    3.1742   -0.8446   -0.5334 C   0  0  0  0  0  0  0  0  0  0  0  0
    2.2787   -1.9955   -0.9407 C   0  0  0  0  0  0  0  0  0  0  0  0
    2.6841   -3.3355   -0.9309 C   0  0  0  0  0  0  0  0  0  0  0  0
    1.8100   -4.3557   -1.3599 C   0  0  0  0  0  0  0  0  0  0  0  0
    0.5204   -4.0468   -1.7972 C   0  0  0  0  0  0  0  0  0  0  0  0
   -0.3831   -4.9138   -2.3508 O   0  0  0  0  0  0  0  0  0  0  0  0
   -0.3459   -6.2677   -1.8908 C   0  0  0  0  0  0  0  0  0  0  0  0
   -1.4273   -7.1155   -2.5461 C   0  0  0  0  0  0  0  0  0  0  0  0
   -2.6224   -6.5651   -3.0094 C   0  0  0  0  0  0  0  0  0  0  0  0
   -3.5950   -7.4040   -3.5564 C   0  0  0  0  0  0  0  0  0  0  0  0
   -3.3596   -8.7727   -3.6221 C   0  0  0  0  0  0  0  0  0  0  0  0
   -2.1547   -9.2429   -3.1334 C   0  0  0  0  0  0  0  0  0  0  0  0
   -1.1948   -8.4564   -2.5979 N   0  0  0  0  0  0  0  0  0  0  0  0
    0.0968   -2.7217   -1.7536 C   0  0  0  0  0  0  0  0  0  0  0  0
    0.9526   -1.7137   -1.3032 C   0  0  0  0  0  0  0  0  0  0  0  0
    4.9376   -0.8858   -2.4007 N   0  0  0  0  0  0  0  0  0  0  0  0
    4.1895   -1.1459   -3.5433 C   0  0  0  0  0  0  0  0  0  0  0  0
    4.8441   -1.6371   -4.6680 C   0  0  0  0  0  0  0  0  0  0  0  0
    4.2007   -2.0200   -5.7942 N   0  0  0  0  0  0  0  0  0  0  0  0
    2.8519   -1.8869   -5.7948 C   0  0  0  0  0  0  0  0  0  0  0  0
    2.0592   -2.3043   -6.8676 C   0  0  0  0  0  0  0  0  0  0  0  0
    2.6342   -2.8711   -7.9439 F   0  0  0  0  0  0  0  0  0  0  0  0
    0.6712   -2.1669   -6.8734 C   0  0  0  0  0  0  0  0  0  0  0  0
    0.0453   -1.5780   -5.7889 C   0  0  0  0  0  0  0  0  0  0  0  0
    0.8194   -1.1428   -4.7162 C   0  0  0  0  0  0  0  0  0  0  0  0
    2.1997   -1.3117   -4.6814 C   0  0  0  0  0  0  0  0  0  0  0  0
    2.8689   -0.9284   -3.5746 N   0  0  0  0  0  0  0  0  0  0  0  0
    2.6660    0.1173   -0.6884 H   0  0  0  0  0  0  0  0  0  0  0  0
    3.3013   -0.9454    0.5512 H   0  0  0  0  0  0  0  0  0  0  0  0
    3.6885   -3.6024   -0.6086 H   0  0  0  0  0  0  0  0  0  0  0  0
    2.1836   -5.3745   -1.3762 H   0  0  0  0  0  0  0  0  0  0  0  0
   -0.5146   -6.2891   -0.8078 H   0  0  0  0  0  0  0  0  0  0  0  0
    0.6203   -6.7231   -2.1290 H   0  0  0  0  0  0  0  0  0  0  0  0
   -2.8033   -5.4955   -2.9505 H   0  0  0  0  0  0  0  0  0  0  0  0
   -4.5282   -6.9932   -3.9261 H   0  0  0  0  0  0  0  0  0  0  0  0
   -4.0946   -9.4491   -4.0376 H   0  0  0  0  0  0  0  0  0  0  0  0
   -1.9217  -10.3058   -3.1572 H   0  0  0  0  0  0  0  0  0  0  0  0
   -0.8995   -2.4613   -2.1008 H   0  0  0  0  0  0  0  0  0  0  0  0
    0.5966   -0.6854   -1.3058 H   0  0  0  0  0  0  0  0  0  0  0  0
    5.9408   -0.8164   -2.5145 H   0  0  0  0  0  0  0  0  0  0  0  0
    5.9209   -1.7814   -4.6889 H   0  0  0  0  0  0  0  0  0  0  0  0
    0.0984   -2.5189   -7.7253 H   0  0  0  0  0  0  0  0  0  0  0  0
   -1.0344   -1.4597   -5.7647 H   0  0  0  0  0  0  0  0  0  0  0  0
    0.3278   -0.6759   -3.8650 H   0  0  0  0  0  0  0  0  0  0  0  0
  1  2  2  0  0  0  0
  2  3  1  0  0  0  0
  2 18  1  0  0  0  0
  3  4  1  0  0  0  0
  3 30  1  0  0  0  0
  3 31  1  0  0  0  0
  4  5  2  0  0  0  0
  4 17  1  0  0  0  0
  5  6  1  0  0  0  0
  5 32  1  0  0  0  0
  6  7  2  0  0  0  0
  6 33  1  0  0  0  0
  7  8  1  0  0  0  0
  7 16  1  0  0  0  0
  8  9  1  0  0  0  0
  9 10  1  0  0  0  0
  9 34  1  0  0  0  0
  9 35  1  0  0  0  0
 10 11  2  0  0  0  0
 10 15  1  0  0  0  0
 11 12  1  0  0  0  0
 11 36  1  0  0  0  0
 12 13  2  0  0  0  0
 12 37  1  0  0  0  0
 13 14  1  0  0  0  0
 13 38  1  0  0  0  0
 14 15  2  0  0  0  0
 14 39  1  0  0  0  0
 16 17  2  0  0  0  0
 16 40  1  0  0  0  0
 17 41  1  0  0  0  0
 18 19  1  0  0  0  0
 18 42  1  0  0  0  0
 19 20  2  0  0  0  0
 19 29  1  0  0  0  0
 20 21  1  0  0  0  0
 20 43  1  0  0  0  0
 21 22  2  0  0  0  0
 22 23  1  0  0  0  0
 22 28  1  0  0  0  0
 23 24  1  0  0  0  0
 23 25  2  0  0  0  0
 25 26  1  0  0  0  0
 25 44  1  0  0  0  0
 26 27  2  0  0  0  0
 26 45  1  0  0  0  0
 27 28  1  0  0  0  0
 27 46  1  0  0  0  0
 28 29  2  0  0  0  0
M  END
$$$$
