
 OpenBabel01122422413D

 49 52  0  0  0  0  0  0  0  0999 V2000
   -2.1050    0.7798   -1.8256 C   0  0  0  0  0  0  0  0  0  0  0  0
   -0.9248    0.1802   -1.2283 N   0  0  0  0  0  0  0  0  0  0  0  0
   -0.6927   -1.1906   -1.1413 C   0  0  0  0  0  0  0  0  0  0  0  0
   -1.2616   -2.3166   -1.8813 C   0  0  0  0  0  0  0  0  0  0  0  0
   -1.3525   -3.4325   -1.3646 O   0  0  0  0  0  0  0  0  0  0  0  0
   -1.7534   -2.2176   -3.2775 C   0  0  0  0  0  0  0  0  0  0  0  0
   -2.7875   -3.0807   -3.6832 C   0  0  0  0  0  0  0  0  0  0  0  0
   -3.3393   -2.9767   -4.9625 C   0  0  0  0  0  0  0  0  0  0  0  0
   -2.8549   -2.0186   -5.8505 C   0  0  0  0  0  0  0  0  0  0  0  0
   -1.7773   -1.2132   -5.4814 C   0  0  0  0  0  0  0  0  0  0  0  0
   -1.2170   -1.3338   -4.2094 C   0  0  0  0  0  0  0  0  0  0  0  0
   -0.1482   -0.5801   -3.9180 F   0  0  0  0  0  0  0  0  0  0  0  0
    0.1460   -1.3436   -0.0500 C   0  0  0  0  0  0  0  0  0  0  0  0
    0.5203   -0.0697    0.4095 C   0  0  0  0  0  0  0  0  0  0  0  0
    0.0301    0.8805   -0.4771 C   0  0  0  0  0  0  0  0  0  0  0  0
    0.3339    2.3245   -0.5635 C   0  0  0  0  0  0  0  0  0  0  0  0
   -0.4553    3.0913   -1.1190 O   0  0  0  0  0  0  0  0  0  0  0  0
    1.5089    2.8345    0.0648 N   0  0  0  0  0  0  0  0  0  0  0  0
    1.7131    4.3015    0.0871 C   0  0  0  0  0  0  0  0  0  0  0  0
    1.5789    4.8462    1.4679 C   0  0  0  0  0  0  0  0  0  0  0  0
    2.3308    5.7686    2.1676 C   0  0  0  0  0  0  0  0  0  0  0  0
    1.9681    5.7873    3.4899 N   0  0  0  0  0  0  0  0  0  0  0  0
    0.9916    4.9157    3.5952 C   0  0  0  0  0  0  0  0  0  0  0  0
    0.6587    4.3871    2.3823 N   0  0  0  0  0  0  0  0  0  0  0  0
    2.6878    2.0700    0.3713 C   0  0  0  0  0  0  0  0  0  0  0  0
    3.2021    1.1224   -0.5199 C   0  0  0  0  0  0  0  0  0  0  0  0
    4.3654    0.4096   -0.2020 C   0  0  0  0  0  0  0  0  0  0  0  0
    5.0379    0.6441    0.9971 C   0  0  0  0  0  0  0  0  0  0  0  0
    4.5458    1.5885    1.8863 C   0  0  0  0  0  0  0  0  0  0  0  0
    3.3836    2.2925    1.5724 C   0  0  0  0  0  0  0  0  0  0  0  0
   -2.8984    0.0279   -1.8821 H   0  0  0  0  0  0  0  0  0  0  0  0
   -1.8569    1.1556   -2.8185 H   0  0  0  0  0  0  0  0  0  0  0  0
   -2.4654    1.5838   -1.1789 H   0  0  0  0  0  0  0  0  0  0  0  0
   -3.1704   -3.8382   -2.9998 H   0  0  0  0  0  0  0  0  0  0  0  0
   -4.1492   -3.6395   -5.2609 H   0  0  0  0  0  0  0  0  0  0  0  0
   -3.3051   -1.9119   -6.8349 H   0  0  0  0  0  0  0  0  0  0  0  0
   -1.3673   -0.4893   -6.1796 H   0  0  0  0  0  0  0  0  0  0  0  0
    0.4622   -2.2971    0.3561 H   0  0  0  0  0  0  0  0  0  0  0  0
    1.1771    0.1139    1.2484 H   0  0  0  0  0  0  0  0  0  0  0  0
    1.0224    4.8160   -0.5874 H   0  0  0  0  0  0  0  0  0  0  0  0
    2.7246    4.5081   -0.2918 H   0  0  0  0  0  0  0  0  0  0  0  0
    3.1635    6.3650    1.8123 H   0  0  0  0  0  0  0  0  0  0  0  0
    0.5023    4.6172    4.5126 H   0  0  0  0  0  0  0  0  0  0  0  0
   -0.0372    3.6750    2.2109 H   0  0  0  0  0  0  0  0  0  0  0  0
    2.7151    0.9261   -1.4719 H   0  0  0  0  0  0  0  0  0  0  0  0
    4.7497   -0.3326   -0.8959 H   0  0  0  0  0  0  0  0  0  0  0  0
    5.9414    0.0929    1.2407 H   0  0  0  0  0  0  0  0  0  0  0  0
    5.0523    1.7818    2.8291 H   0  0  0  0  0  0  0  0  0  0  0  0
    3.0237    2.9866    2.3228 H   0  0  0  0  0  0  0  0  0  0  0  0
  1  2  1  0  0  0  0
  1 31  1  0  0  0  0
  1 32  1  0  0  0  0
  1 33  1  0  0  0  0
  2  3  1  0  0  0  0
  2 15  1  0  0  0  0
  3  4  1  0  0  0  0
  3 13  2  0  0  0  0
  4  5  2  0  0  0  0
  4  6  1  0  0  0  0
  6  7  2  0  0  0  0
  6 11  1  0  0  0  0
  7  8  1  0  0  0  0
  7 34  1  0  0  0  0
  8  9  2  0  0  0  0
  8 35  1  0  0  0  0
  9 10  1  0  0  0  0
  9 36  1  0  0  0  0
 10 11  2  0  0  0  0
 10 37  1  0  0  0  0
 11 12  1  0  0  0  0
 13 14  1  0  0  0  0
 13 38  1  0  0  0  0
 14 15  2  0  0  0  0
 14 39  1  0  0  0  0
 15 16  1  0  0  0  0
 16 17  2  0  0  0  0
 16 18  1  0  0  0  0
 18 19  1  0  0  0  0
 18 25  1  0  0  0  0
 19 20  1  0  0  0  0
 19 40  1  0  0  0  0
 19 41  1  0  0  0  0
 20 21  2  0  0  0  0
 20 24  1  0  0  0  0
 21 22  1  0  0  0  0
 21 42  1  0  0  0  0
 22 23  2  0  0  0  0
 23 24  1  0  0  0  0
 23 43  1  0  0  0  0
 24 44  1  0  0  0  0
 25 26  2  0  0  0  0
 25 30  1  0  0  0  0
 26 27  1  0  0  0  0
 26 45  1  0  0  0  0
 27 28  2  0  0  0  0
 27 46  1  0  0  0  0
 28 29  1  0  0  0  0
 28 47  1  0  0  0  0
 29 30  2  0  0  0  0
 29 48  1  0  0  0  0
 30 49  1  0  0  0  0
M  END
$$$$
