
 OpenBabel01122422413D

 44 47  0  0  0  0  0  0  0  0999 V2000
    1.2835    1.6007    1.0567 O   0  0  0  0  0  0  0  0  0  0  0  0
    2.3816    1.1076    0.8134 C   0  0  0  0  0  0  0  0  0  0  0  0
    3.0198    1.2834   -0.4028 N   0  0  0  0  0  0  0  0  0  0  0  0
    2.3254    1.8681   -1.5257 C   0  0  0  0  0  0  0  0  0  0  0  0
    3.2089    2.3373   -2.6586 C   0  0  0  0  0  0  0  0  0  0  0  0
    2.8301    3.5599   -3.2598 C   0  0  0  0  0  0  0  0  0  0  0  0
    3.6111    4.1750   -4.2391 C   0  0  0  0  0  0  0  0  0  0  0  0
    4.7948    3.5798   -4.6462 C   0  0  0  0  0  0  0  0  0  0  0  0
    5.1503    2.3387   -4.1243 C   0  0  0  0  0  0  0  0  0  0  0  0
    4.3431    1.6836   -3.1763 C   0  0  0  0  0  0  0  0  0  0  0  0
    4.8712    0.4691   -2.8010 O   0  0  0  0  0  0  0  0  0  0  0  0
    4.0765   -0.6113   -2.5251 C   0  0  0  0  0  0  0  0  0  0  0  0
    2.8408   -0.8512   -3.1059 C   0  0  0  0  0  0  0  0  0  0  0  0
    2.0322   -1.8398   -2.5456 C   0  0  0  0  0  0  0  0  0  0  0  0
    2.5139   -2.6051   -1.4893 C   0  0  0  0  0  0  0  0  0  0  0  0
    3.8009   -2.3672   -1.0493 C   0  0  0  0  0  0  0  0  0  0  0  0
    4.5815   -1.3808   -1.5346 N   0  0  0  0  0  0  0  0  0  0  0  0
    3.1379    0.2752    1.7590 C   0  0  0  0  0  0  0  0  0  0  0  0
    2.6994   -0.0051    2.9954 N   0  0  0  0  0  0  0  0  0  0  0  0
    3.7047   -0.8115    3.5278 O   0  0  0  0  0  0  0  0  0  0  0  0
    4.6554   -0.9525    2.5521 C   0  0  0  0  0  0  0  0  0  0  0  0
    5.8236   -1.7601    2.8827 C   0  0  0  0  0  0  0  0  0  0  0  0
    6.7646   -2.0732    1.8910 C   0  0  0  0  0  0  0  0  0  0  0  0
    7.8953   -2.8152    2.2153 C   0  0  0  0  0  0  0  0  0  0  0  0
    8.7903   -3.1102    1.2614 F   0  0  0  0  0  0  0  0  0  0  0  0
    8.1189   -3.2623    3.5134 C   0  0  0  0  0  0  0  0  0  0  0  0
    7.1911   -2.9626    4.5076 C   0  0  0  0  0  0  0  0  0  0  0  0
    6.0468   -2.2275    4.1905 C   0  0  0  0  0  0  0  0  0  0  0  0
    4.3513   -0.3157    1.4449 N   0  0  0  0  0  0  0  0  0  0  0  0
    3.8331    0.6893   -0.5571 H   0  0  0  0  0  0  0  0  0  0  0  0
    1.7632    2.7222   -1.1271 H   0  0  0  0  0  0  0  0  0  0  0  0
    1.5683    1.1652   -1.8921 H   0  0  0  0  0  0  0  0  0  0  0  0
    1.9187    4.0663   -2.9416 H   0  0  0  0  0  0  0  0  0  0  0  0
    3.3057    5.1298   -4.6596 H   0  0  0  0  0  0  0  0  0  0  0  0
    5.4387    4.0743   -5.3684 H   0  0  0  0  0  0  0  0  0  0  0  0
    6.0791    1.8738   -4.4510 H   0  0  0  0  0  0  0  0  0  0  0  0
    2.4688   -0.2372   -3.9179 H   0  0  0  0  0  0  0  0  0  0  0  0
    1.0206   -1.9921   -2.9111 H   0  0  0  0  0  0  0  0  0  0  0  0
    1.9026   -3.3667   -1.0185 H   0  0  0  0  0  0  0  0  0  0  0  0
    4.2423   -2.9547   -0.2496 H   0  0  0  0  0  0  0  0  0  0  0  0
    6.6329   -1.7413    0.8632 H   0  0  0  0  0  0  0  0  0  0  0  0
    9.0178   -3.8266    3.7436 H   0  0  0  0  0  0  0  0  0  0  0  0
    7.3547   -3.3023    5.5267 H   0  0  0  0  0  0  0  0  0  0  0  0
    5.3392   -2.0014    4.9871 H   0  0  0  0  0  0  0  0  0  0  0  0
  1  2  2  0  0  0  0
  2  3  1  0  0  0  0
  2 18  1  0  0  0  0
  3  4  1  0  0  0  0
  3 30  1  0  0  0  0
  4  5  1  0  0  0  0
  4 31  1  0  0  0  0
  4 32  1  0  0  0  0
  5  6  2  0  0  0  0
  5 10  1  0  0  0  0
  6  7  1  0  0  0  0
  6 33  1  0  0  0  0
  7  8  2  0  0  0  0
  7 34  1  0  0  0  0
  8  9  1  0  0  0  0
  8 35  1  0  0  0  0
  9 10  2  0  0  0  0
  9 36  1  0  0  0  0
 10 11  1  0  0  0  0
 11 12  1  0  0  0  0
 12 13  2  0  0  0  0
 12 17  1  0  0  0  0
 13 14  1  0  0  0  0
 13 37  1  0  0  0  0
 14 15  2  0  0  0  0
 14 38  1  0  0  0  0
 15 16  1  0  0  0  0
 15 39  1  0  0  0  0
 16 17  2  0  0  0  0
 16 40  1  0  0  0  0
 18 19  2  0  0  0  0
 18 29  1  0  0  0  0
 19 20  1  0  0  0  0
 20 21  1  0  0  0  0
 21 22  1  0  0  0  0
 21 29  2  0  0  0  0
 22 23  2  0  0  0  0
 22 28  1  0  0  0  0
 23 24  1  0  0  0  0
 23 41  1  0  0  0  0
 24 25  1  0  0  0  0
 24 26  2  0  0  0  0
 26 27  1  0  0  0  0
 26 42  1  0  0  0  0
 27 28  2  0  0  0  0
 27 43  1  0  0  0  0
 28 44  1  0  0  0  0
M  END
$$$$
