
 OpenBabel01122422413D

 51 54  0  0  1  0  0  0  0  0999 V2000
    1.0891    1.4130   -4.6145 C   0  0  0  0  0  0  0  0  0  0  0  0
    1.2069    2.2569   -3.4762 O   0  0  0  0  0  0  0  0  0  0  0  0
    2.3333    2.1071   -2.7152 C   0  0  0  0  0  0  0  0  0  0  0  0
    2.1884    2.4574   -1.3711 C   0  0  0  0  0  0  0  0  0  0  0  0
    3.2780    2.4012   -0.5039 C   0  0  0  0  0  0  0  0  0  0  0  0
    4.5236    2.0056   -0.9808 C   0  0  0  0  0  0  0  0  0  0  0  0
    4.6945    1.6548   -2.3310 C   0  0  0  0  0  0  0  0  0  0  0  0
    6.0586    1.2492   -2.8659 C   0  0  0  0  0  0  0  0  0  0  0  0
    6.8541    2.4359   -3.4734 C   0  0  3  0  0  0  0  0  0  0  0  0
    7.1068    3.5061   -2.5113 N   0  0  0  0  0  0  0  0  0  0  0  0
    7.7820    3.2931   -1.3267 C   0  0  0  0  0  0  0  0  0  0  0  0
    8.0461    2.2037   -0.8396 O   0  0  0  0  0  0  0  0  0  0  0  0
    8.4223    4.5428   -0.7274 C   0  0  0  0  0  0  0  0  0  0  0  0
    8.5341    5.5829   -1.5167 N   0  0  0  0  0  0  0  0  0  0  0  0
    9.8002    5.5363   -2.1596 C   0  0  0  0  0  0  0  0  0  0  0  0
    9.8976    6.0350   -3.4515 C   0  0  0  0  0  0  0  0  0  0  0  0
   10.9704    5.6462   -4.2494 C   0  0  0  0  0  0  0  0  0  0  0  0
   11.9544    4.7882   -3.7449 C   0  0  0  0  0  0  0  0  0  0  0  0
   11.9342    4.3845   -2.4090 C   0  0  0  0  0  0  0  0  0  0  0  0
   10.8638    4.7638   -1.6189 C   0  0  0  0  0  0  0  0  0  0  0  0
   10.7551    4.3047   -0.2925 N   0  0  0  0  0  0  0  0  0  0  0  0
    9.5138    4.3161    0.3083 C   0  0  0  0  0  0  0  0  0  0  0  0
    9.2686    4.0990    1.4804 O   0  0  0  0  0  0  0  0  0  0  0  0
    8.1558    2.0705   -4.1996 C   0  0  0  0  0  0  0  0  0  0  0  0
    8.5582    2.8072   -5.3312 C   0  0  0  0  0  0  0  0  0  0  0  0
    9.7881    2.5680   -5.9584 C   0  0  0  0  0  0  0  0  0  0  0  0
   10.6435    1.5880   -5.4640 C   0  0  0  0  0  0  0  0  0  0  0  0
   10.2567    0.8348   -4.3588 C   0  0  0  0  0  0  0  0  0  0  0  0
    9.0266    1.0732   -3.7329 C   0  0  0  0  0  0  0  0  0  0  0  0
    3.5863    1.7132   -3.1916 C   0  0  0  0  0  0  0  0  0  0  0  0
    0.2064    1.7387   -5.1737 H   0  0  0  0  0  0  0  0  0  0  0  0
    0.9306    0.3752   -4.3047 H   0  0  0  0  0  0  0  0  0  0  0  0
    1.9400    1.4926   -5.2958 H   0  0  0  0  0  0  0  0  0  0  0  0
    1.2162    2.7701   -0.9977 H   0  0  0  0  0  0  0  0  0  0  0  0
    3.1540    2.6802    0.5444 H   0  0  0  0  0  0  0  0  0  0  0  0
    5.3692    1.9800   -0.2943 H   0  0  0  0  0  0  0  0  0  0  0  0
    5.9159    0.4737   -3.6295 H   0  0  0  0  0  0  0  0  0  0  0  0
    6.6109    0.7512   -2.0619 H   0  0  0  0  0  0  0  0  0  0  0  0
    6.2000    2.8901   -4.2313 H   0  0  0  0  0  0  0  0  0  0  0  0
    7.1144    4.4618   -2.8534 H   0  0  0  0  0  0  0  0  0  0  0  0
    9.1011    6.6520   -3.8562 H   0  0  0  0  0  0  0  0  0  0  0  0
   11.0036    5.9581   -5.2889 H   0  0  0  0  0  0  0  0  0  0  0  0
   12.7238    4.4052   -4.4084 H   0  0  0  0  0  0  0  0  0  0  0  0
   12.6863    3.6979   -2.0352 H   0  0  0  0  0  0  0  0  0  0  0  0
   11.5304    3.8948    0.2057 H   0  0  0  0  0  0  0  0  0  0  0  0
    7.9210    3.5930   -5.7306 H   0  0  0  0  0  0  0  0  0  0  0  0
   10.0827    3.1591   -6.8226 H   0  0  0  0  0  0  0  0  0  0  0  0
   11.6093    1.4132   -5.9322 H   0  0  0  0  0  0  0  0  0  0  0  0
   10.9205    0.0664   -3.9696 H   0  0  0  0  0  0  0  0  0  0  0  0
    8.7772    0.4849   -2.8529 H   0  0  0  0  0  0  0  0  0  0  0  0
    3.7357    1.4699   -4.2372 H   0  0  0  0  0  0  0  0  0  0  0  0
  1  2  1  0  0  0  0
  1 31  1  0  0  0  0
  1 32  1  0  0  0  0
  1 33  1  0  0  0  0
  2  3  1  0  0  0  0
  3  4  2  0  0  0  0
  3 30  1  0  0  0  0
  4  5  1  0  0  0  0
  4 34  1  0  0  0  0
  5  6  2  0  0  0  0
  5 35  1  0  0  0  0
  6  7  1  0  0  0  0
  6 36  1  0  0  0  0
  7  8  1  0  0  0  0
  7 30  2  0  0  0  0
  8  9  1  0  0  0  0
  8 37  1  0  0  0  0
  8 38  1  0  0  0  0
  9 10  1  0  0  0  0
  9 24  1  0  0  0  0
  9 39  1  0  0  0  0
 10 11  1  0  0  0  0
 10 40  1  0  0  0  0
 11 12  2  0  0  0  0
 11 13  1  0  0  0  0
 13 14  2  0  0  0  0
 13 22  1  0  0  0  0
 14 15  1  0  0  0  0
 15 16  2  0  0  0  0
 15 20  1  0  0  0  0
 16 17  1  0  0  0  0
 16 41  1  0  0  0  0
 17 18  2  0  0  0  0
 17 42  1  0  0  0  0
 18 19  1  0  0  0  0
 18 43  1  0  0  0  0
 19 20  2  0  0  0  0
 19 44  1  0  0  0  0
 20 21  1  0  0  0  0
 21 22  1  0  0  0  0
 21 45  1  0  0  0  0
 22 23  2  0  0  0  0
 24 25  2  0  0  0  0
 24 29  1  0  0  0  0
 25 26  1  0  0  0  0
 25 46  1  0  0  0  0
 26 27  2  0  0  0  0
 26 47  1  0  0  0  0
 27 28  1  0  0  0  0
 27 48  1  0  0  0  0
 28 29  2  0  0  0  0
 28 49  1  0  0  0  0
 29 50  1  0  0  0  0
 30 51  1  0  0  0  0
M  END
$$$$
