
 OpenBabel01122422413D

 47 50  0  0  1  0  0  0  0  0999 V2000
    0.6127    0.8551   -0.0768 O   0  0  0  0  0  0  0  0  0  0  0  0
    1.8102    0.9256   -0.0057 C   0  0  0  0  0  0  0  0  0  0  0  0
    2.6714    1.0262    1.0899 N   0  0  0  0  0  0  0  0  0  0  0  0
    2.0642    1.0552    2.4238 C   0  0  3  0  0  0  0  0  0  0  0  0
    1.2025   -0.1365    2.9011 C   0  0  0  0  0  0  0  0  0  0  0  0
    1.9026   -1.4563    2.9569 C   0  0  0  0  0  0  0  0  0  0  0  0
    2.5692   -1.8716    4.1269 C   0  0  0  0  0  0  0  0  0  0  0  0
    3.3036   -3.0415    4.1275 C   0  0  0  0  0  0  0  0  0  0  0  0
    3.4056   -3.8060    2.9787 C   0  0  0  0  0  0  0  0  0  0  0  0
    2.7301   -3.4180    1.8248 C   0  0  0  0  0  0  0  0  0  0  0  0
    2.0416   -2.2127    1.7902 C   0  0  0  0  0  0  0  0  0  0  0  0
    3.0510    1.3598    3.5262 C   0  0  0  0  0  0  0  0  0  0  0  0
    4.4222    1.6026    3.3608 C   0  0  0  0  0  0  0  0  0  0  0  0
    5.2179    1.9870    4.4399 C   0  0  0  0  0  0  0  0  0  0  0  0
    4.7335    2.0064    5.6911 N   0  0  0  0  0  0  0  0  0  0  0  0
    3.4708    1.6794    5.8566 C   0  0  0  0  0  0  0  0  0  0  0  0
    2.5064    1.4148    4.8345 C   0  0  0  0  0  0  0  0  0  0  0  0
    2.6763    0.9808   -1.1963 C   0  0  0  0  0  0  0  0  0  0  0  0
    1.9171    1.3899   -2.2691 C   0  0  0  0  0  0  0  0  0  0  0  0
    2.4406    0.6155   -3.2848 N   0  0  0  0  0  0  0  0  0  0  0  0
    2.3014   -0.7837   -2.9934 C   0  0  0  0  0  0  0  0  0  0  0  0
    1.1653   -1.4408   -3.3811 C   0  0  0  0  0  0  0  0  0  0  0  0
    0.9009   -2.7655   -3.1685 C   0  0  0  0  0  0  0  0  0  0  0  0
    1.8769   -3.4652   -2.5007 C   0  0  0  0  0  0  0  0  0  0  0  0
    1.7608   -4.7957   -2.4425 F   0  0  0  0  0  0  0  0  0  0  0  0
    2.9721   -2.8066   -1.9170 C   0  0  0  0  0  0  0  0  0  0  0  0
    3.0549   -1.4084   -2.0264 C   0  0  0  0  0  0  0  0  0  0  0  0
    3.7231   -0.3494   -1.2739 C   0  0  0  0  0  0  0  0  0  0  0  0
    4.8466   -0.5104   -0.8203 O   0  0  0  0  0  0  0  0  0  0  0  0
    3.3744    0.3120    1.0882 H   0  0  0  0  0  0  0  0  0  0  0  0
    1.4432    1.9154    2.2361 H   0  0  0  0  0  0  0  0  0  0  0  0
    0.3603   -0.2367    2.2259 H   0  0  0  0  0  0  0  0  0  0  0  0
    0.6909    0.0154    3.8619 H   0  0  0  0  0  0  0  0  0  0  0  0
    2.6113   -1.2298    5.0063 H   0  0  0  0  0  0  0  0  0  0  0  0
    3.8210   -3.3542    5.0278 H   0  0  0  0  0  0  0  0  0  0  0  0
    4.0409   -4.6881    2.9571 H   0  0  0  0  0  0  0  0  0  0  0  0
    2.7807   -4.0274    0.9333 H   0  0  0  0  0  0  0  0  0  0  0  0
    1.8588   -1.7574    0.8151 H   0  0  0  0  0  0  0  0  0  0  0  0
    4.8646    1.7148    2.3758 H   0  0  0  0  0  0  0  0  0  0  0  0
    6.2029    2.3904    4.2843 H   0  0  0  0  0  0  0  0  0  0  0  0
    3.1263    1.6402    6.8671 H   0  0  0  0  0  0  0  0  0  0  0  0
    1.5336    1.1763    5.0329 H   0  0  0  0  0  0  0  0  0  0  0  0
    1.3199    1.7106   -3.1586 H   0  0  0  0  0  0  0  0  0  0  0  0
    3.3908    1.0078   -3.1991 H   0  0  0  0  0  0  0  0  0  0  0  0
    0.4593   -0.8423   -3.9018 H   0  0  0  0  0  0  0  0  0  0  0  0
    0.0225   -3.2016   -3.6477 H   0  0  0  0  0  0  0  0  0  0  0  0
    3.7858   -3.3862   -1.4890 H   0  0  0  0  0  0  0  0  0  0  0  0
  1  2  2  0  0  0  0
  2  3  1  0  0  0  0
  2 18  1  0  0  0  0
  3  4  1  0  0  0  0
  3 30  1  0  0  0  0
  4  5  1  0  0  0  0
  4 12  1  0  0  0  0
  4 31  1  0  0  0  0
  5  6  1  0  0  0  0
  5 32  1  0  0  0  0
  5 33  1  0  0  0  0
  6  7  2  0  0  0  0
  6 11  1  0  0  0  0
  7  8  1  0  0  0  0
  7 34  1  0  0  0  0
  8  9  2  0  0  0  0
  8 35  1  0  0  0  0
  9 10  1  0  0  0  0
  9 36  1  0  0  0  0
 10 11  2  0  0  0  0
 10 37  1  0  0  0  0
 11 38  1  0  0  0  0
 12 13  2  0  0  0  0
 12 17  1  0  0  0  0
 13 14  1  0  0  0  0
 13 39  1  0  0  0  0
 14 15  2  0  0  0  0
 14 40  1  0  0  0  0
 15 16  1  0  0  0  0
 16 17  2  0  0  0  0
 16 41  1  0  0  0  0
 17 42  1  0  0  0  0
 18 19  2  0  0  0  0
 18 28  1  0  0  0  0
 19 20  1  0  0  0  0
 19 43  1  0  0  0  0
 20 21  1  0  0  0  0
 20 44  1  0  0  0  0
 21 22  2  0  0  0  0
 21 27  1  0  0  0  0
 22 23  1  0  0  0  0
 22 45  1  0  0  0  0
 23 24  2  0  0  0  0
 23 46  1  0  0  0  0
 24 25  1  0  0  0  0
 24 26  1  0  0  0  0
 26 27  2  0  0  0  0
 26 47  1  0  0  0  0
 27 28  1  0  0  0  0
 28 29  2  0  0  0  0
M  END
$$$$
