
 OpenBabel01122422413D

 47 50  0  0  0  0  0  0  0  0999 V2000
    1.1506    0.1103   -0.0346 O   0  0  0  0  0  0  0  0  0  0  0  0
    2.3563    0.0815    0.1408 C   0  0  0  0  0  0  0  0  0  0  0  0
    3.1110   -1.0716    0.1647 N   0  0  0  0  0  0  0  0  0  0  0  0
    2.4387   -2.3125   -0.1278 C   0  0  0  0  0  0  0  0  0  0  0  0
    3.3135   -3.5453   -0.2027 C   0  0  0  0  0  0  0  0  0  0  0  0
    4.6491   -3.3138   -0.0118 N   0  0  0  0  0  0  0  0  0  0  0  0
    5.4782   -4.3749   -0.0195 C   0  0  0  0  0  0  0  0  0  0  0  0
    5.0562   -5.6702   -0.2261 C   0  0  0  0  0  0  0  0  0  0  0  0
    3.6992   -5.8924   -0.4521 C   0  0  0  0  0  0  0  0  0  0  0  0
    2.7679   -4.8328   -0.4517 C   0  0  0  0  0  0  0  0  0  0  0  0
    1.3123   -5.1151   -0.6496 C   0  0  0  0  0  0  0  0  0  0  0  0
    0.7221   -6.3127   -0.2041 C   0  0  0  0  0  0  0  0  0  0  0  0
   -0.6599   -6.5289   -0.2943 C   0  0  0  0  0  0  0  0  0  0  0  0
   -1.4987   -5.5362   -0.7901 C   0  0  0  0  0  0  0  0  0  0  0  0
   -0.9461   -4.3662   -1.2770 C   0  0  0  0  0  0  0  0  0  0  0  0
    0.4378   -4.2029   -1.2671 C   0  0  0  0  0  0  0  0  0  0  0  0
    3.1328    1.3735    0.3446 C   0  0  0  0  0  0  0  0  0  0  0  0
    4.3660    1.4179   -0.0748 N   0  0  0  0  0  0  0  0  0  0  0  0
    5.1147    2.5673    0.1785 N   0  0  0  0  0  0  0  0  0  0  0  0
    6.4926    2.4678   -0.2258 C   0  0  0  0  0  0  0  0  0  0  0  0
    7.4881    3.2932    0.3182 C   0  0  0  0  0  0  0  0  0  0  0  0
    8.8352    3.1230    0.0102 C   0  0  0  0  0  0  0  0  0  0  0  0
    9.2237    2.1241   -0.8763 C   0  0  0  0  0  0  0  0  0  0  0  0
    8.2539    1.3225   -1.4724 C   0  0  0  0  0  0  0  0  0  0  0  0
    6.9023    1.4891   -1.1482 C   0  0  0  0  0  0  0  0  0  0  0  0
    4.6109    3.6766    0.8719 C   0  0  0  0  0  0  0  0  0  0  0  0
    5.1786    4.7403    1.1040 O   0  0  0  0  0  0  0  0  0  0  0  0
    3.3280    3.5638    1.3248 N   0  0  0  0  0  0  0  0  0  0  0  0
    2.4910    2.5359    1.0499 C   0  0  0  0  0  0  0  0  0  0  0  0
    1.3107    2.5543    1.3540 O   0  0  0  0  0  0  0  0  0  0  0  0
    4.1080   -1.0263   -0.0205 H   0  0  0  0  0  0  0  0  0  0  0  0
    2.0120   -2.1217   -1.1091 H   0  0  0  0  0  0  0  0  0  0  0  0
    1.6480   -2.4498    0.6218 H   0  0  0  0  0  0  0  0  0  0  0  0
    6.5265   -4.1479    0.1532 H   0  0  0  0  0  0  0  0  0  0  0  0
    5.7624   -6.4936   -0.2147 H   0  0  0  0  0  0  0  0  0  0  0  0
    3.3801   -6.9176   -0.6285 H   0  0  0  0  0  0  0  0  0  0  0  0
    1.3239   -7.1043    0.2377 H   0  0  0  0  0  0  0  0  0  0  0  0
   -1.0841   -7.4700    0.0445 H   0  0  0  0  0  0  0  0  0  0  0  0
   -2.5735   -5.6767   -0.8164 H   0  0  0  0  0  0  0  0  0  0  0  0
   -1.5737   -3.5736   -1.6785 H   0  0  0  0  0  0  0  0  0  0  0  0
    0.7930   -3.3196   -1.7773 H   0  0  0  0  0  0  0  0  0  0  0  0
    7.2572    4.0744    1.0401 H   0  0  0  0  0  0  0  0  0  0  0  0
    9.5779    3.7589    0.4834 H   0  0  0  0  0  0  0  0  0  0  0  0
   10.2751    1.9755   -1.0954 H   0  0  0  0  0  0  0  0  0  0  0  0
    8.5512    0.5574   -2.1842 H   0  0  0  0  0  0  0  0  0  0  0  0
    6.1741    0.8462   -1.6373 H   0  0  0  0  0  0  0  0  0  0  0  0
    2.9422    4.3771    1.7799 H   0  0  0  0  0  0  0  0  0  0  0  0
  1  2  2  0  0  0  0
  2  3  1  0  0  0  0
  2 17  1  0  0  0  0
  3  4  1  0  0  0  0
  3 31  1  0  0  0  0
  4  5  1  0  0  0  0
  4 32  1  0  0  0  0
  4 33  1  0  0  0  0
  5  6  2  0  0  0  0
  5 10  1  0  0  0  0
  6  7  1  0  0  0  0
  7  8  2  0  0  0  0
  7 34  1  0  0  0  0
  8  9  1  0  0  0  0
  8 35  1  0  0  0  0
  9 10  2  0  0  0  0
  9 36  1  0  0  0  0
 10 11  1  0  0  0  0
 11 12  2  0  0  0  0
 11 16  1  0  0  0  0
 12 13  1  0  0  0  0
 12 37  1  0  0  0  0
 13 14  2  0  0  0  0
 13 38  1  0  0  0  0
 14 15  1  0  0  0  0
 14 39  1  0  0  0  0
 15 16  2  0  0  0  0
 15 40  1  0  0  0  0
 16 41  1  0  0  0  0
 17 18  2  0  0  0  0
 17 29  1  0  0  0  0
 18 19  1  0  0  0  0
 19 20  1  0  0  0  0
 19 26  1  0  0  0  0
 20 21  2  0  0  0  0
 20 25  1  0  0  0  0
 21 22  1  0  0  0  0
 21 42  1  0  0  0  0
 22 23  2  0  0  0  0
 22 43  1  0  0  0  0
 23 24  1  0  0  0  0
 23 44  1  0  0  0  0
 24 25  2  0  0  0  0
 24 45  1  0  0  0  0
 25 46  1  0  0  0  0
 26 27  2  0  0  0  0
 26 28  1  0  0  0  0
 28 29  1  0  0  0  0
 28 47  1  0  0  0  0
 29 30  2  0  0  0  0
M  END
$$$$
