
 OpenBabel01122422353D

 42 45  0  0  0  0  0  0  0  0999 V2000
    1.5175   -0.7196    2.0450 O   0  0  0  0  0  0  0  0  0  0  0  0
    2.3677   -0.5166    1.1993 C   0  0  0  0  0  0  0  0  0  0  0  0
    2.7307    0.7158    0.7895 O   0  0  0  0  0  0  0  0  0  0  0  0
    3.0638   -1.6022    0.4891 C   0  0  0  0  0  0  0  0  0  0  0  0
    2.3809   -2.7742    0.2301 C   0  0  0  0  0  0  0  0  0  0  0  0
    2.9178   -3.8280   -0.4337 N   0  0  0  0  0  0  0  0  0  0  0  0
    4.1965   -3.7775   -0.8119 C   0  0  0  0  0  0  0  0  0  0  0  0
    4.7011   -4.8387   -1.4372 N   0  0  0  0  0  0  0  0  0  0  0  0
    6.0250   -4.8789   -1.6779 C   0  0  0  0  0  0  0  0  0  0  0  0
    6.4811   -6.0779   -2.2328 N   0  0  0  0  0  0  0  0  0  0  0  0
    7.6816   -6.6603   -1.8913 C   0  0  0  0  0  0  0  0  0  0  0  0
    8.4639   -6.2006   -1.0623 O   0  0  0  0  0  0  0  0  0  0  0  0
    8.0477   -7.9329   -2.5793 C   0  0  0  0  0  0  0  0  0  0  0  0
    7.1281   -8.7856   -3.2157 C   0  0  0  0  0  0  0  0  0  0  0  0
    7.5569   -9.9421   -3.9077 C   0  0  0  0  0  0  0  0  0  0  0  0
    6.5933  -10.8312   -4.5952 C   0  0  0  0  0  0  0  0  0  0  0  0
    6.8239  -12.1982   -4.7749 C   0  0  0  0  0  0  0  0  0  0  0  0
    5.9003  -12.9697   -5.4741 C   0  0  0  0  0  0  0  0  0  0  0  0
    4.7600  -12.3602   -5.9737 C   0  0  0  0  0  0  0  0  0  0  0  0
    4.5812  -11.0112   -5.7351 C   0  0  0  0  0  0  0  0  0  0  0  0
    5.4650  -10.2382   -5.0602 N   0  0  0  0  0  0  0  0  0  0  0  0
    8.9365  -10.2044   -3.9430 C   0  0  0  0  0  0  0  0  0  0  0  0
    9.8372   -9.3774   -3.2854 C   0  0  0  0  0  0  0  0  0  0  0  0
   11.1446   -9.6616   -3.3340 F   0  0  0  0  0  0  0  0  0  0  0  0
    9.4083   -8.2567   -2.5983 C   0  0  0  0  0  0  0  0  0  0  0  0
    6.8734   -3.8101   -1.4318 C   0  0  0  0  0  0  0  0  0  0  0  0
    6.3382   -2.6578   -0.8760 C   0  0  0  0  0  0  0  0  0  0  0  0
    4.9839   -2.6399   -0.5333 C   0  0  0  0  0  0  0  0  0  0  0  0
    4.4003   -1.5331    0.1077 C   0  0  0  0  0  0  0  0  0  0  0  0
    3.2750    0.7573   -0.0184 H   0  0  0  0  0  0  0  0  0  0  0  0
    1.3493   -2.9133    0.5504 H   0  0  0  0  0  0  0  0  0  0  0  0
    5.7431   -6.6332   -2.6393 H   0  0  0  0  0  0  0  0  0  0  0  0
    6.0601   -8.5823   -3.1780 H   0  0  0  0  0  0  0  0  0  0  0  0
    7.7109  -12.6797   -4.3780 H   0  0  0  0  0  0  0  0  0  0  0  0
    6.0713  -14.0305   -5.6307 H   0  0  0  0  0  0  0  0  0  0  0  0
    4.0137  -12.9305   -6.5223 H   0  0  0  0  0  0  0  0  0  0  0  0
    3.6971  -10.4915   -6.0969 H   0  0  0  0  0  0  0  0  0  0  0  0
    9.3403  -11.0468   -4.4972 H   0  0  0  0  0  0  0  0  0  0  0  0
   10.1428   -7.6296   -2.0996 H   0  0  0  0  0  0  0  0  0  0  0  0
    7.9280   -3.8531   -1.6870 H   0  0  0  0  0  0  0  0  0  0  0  0
    6.9818   -1.8025   -0.6934 H   0  0  0  0  0  0  0  0  0  0  0  0
    5.0019   -0.6615    0.3440 H   0  0  0  0  0  0  0  0  0  0  0  0
  1  2  2  0  0  0  0
  2  3  1  0  0  0  0
  2  4  1  0  0  0  0
  3 30  1  0  0  0  0
  4  5  2  0  0  0  0
  4 29  1  0  0  0  0
  5  6  1  0  0  0  0
  5 31  1  0  0  0  0
  6  7  2  0  0  0  0
  7  8  1  0  0  0  0
  7 28  1  0  0  0  0
  8  9  2  0  0  0  0
  9 10  1  0  0  0  0
  9 26  1  0  0  0  0
 10 11  1  0  0  0  0
 10 32  1  0  0  0  0
 11 12  2  0  0  0  0
 11 13  1  0  0  0  0
 13 14  2  0  0  0  0
 13 25  1  0  0  0  0
 14 15  1  0  0  0  0
 14 33  1  0  0  0  0
 15 16  1  0  0  0  0
 15 22  2  0  0  0  0
 16 17  2  0  0  0  0
 16 21  1  0  0  0  0
 17 18  1  0  0  0  0
 17 34  1  0  0  0  0
 18 19  2  0  0  0  0
 18 35  1  0  0  0  0
 19 20  1  0  0  0  0
 19 36  1  0  0  0  0
 20 21  2  0  0  0  0
 20 37  1  0  0  0  0
 22 23  1  0  0  0  0
 22 38  1  0  0  0  0
 23 24  1  0  0  0  0
 23 25  2  0  0  0  0
 25 39  1  0  0  0  0
 26 27  2  0  0  0  0
 26 40  1  0  0  0  0
 27 28  1  0  0  0  0
 27 41  1  0  0  0  0
 28 29  2  0  0  0  0
 29 42  1  0  0  0  0
M  END
$$$$
