
 OpenBabel01122422413D

 40 43  0  0  0  0  0  0  0  0999 V2000
    1.1128   -0.2835   -0.3154 O   0  0  0  0  0  0  0  0  0  0  0  0
    2.3301   -0.1613   -0.2427 C   0  0  0  0  0  0  0  0  0  0  0  0
    3.0049    0.9292   -0.7384 N   0  0  0  0  0  0  0  0  0  0  0  0
    2.2698    1.9842   -1.4074 C   0  0  0  0  0  0  0  0  0  0  0  0
    3.1894    3.0743   -1.8277 C   0  0  0  0  0  0  0  0  0  0  0  0
    2.7797    4.3442   -1.9435 N   0  0  0  0  0  0  0  0  0  0  0  0
    3.9390    5.0198   -2.3151 O   0  0  0  0  0  0  0  0  0  0  0  0
    4.9371    4.0868   -2.3912 C   0  0  0  0  0  0  0  0  0  0  0  0
    6.2551    4.5743   -2.7822 C   0  0  0  0  0  0  0  0  0  0  0  0
    6.4878    5.9425   -3.0094 C   0  0  0  0  0  0  0  0  0  0  0  0
    7.7394    6.3942   -3.4322 C   0  0  0  0  0  0  0  0  0  0  0  0
    8.7664    5.4808   -3.6265 C   0  0  0  0  0  0  0  0  0  0  0  0
    9.9582    5.9120   -4.0575 F   0  0  0  0  0  0  0  0  0  0  0  0
    8.5710    4.1257   -3.3878 C   0  0  0  0  0  0  0  0  0  0  0  0
    7.3185    3.6729   -2.9606 C   0  0  0  0  0  0  0  0  0  0  0  0
    4.5260    2.8688   -2.1040 N   0  0  0  0  0  0  0  0  0  0  0  0
    3.2090   -1.1925    0.4101 C   0  0  0  0  0  0  0  0  0  0  0  0
    2.6989   -2.4269    0.5468 C   0  0  0  0  0  0  0  0  0  0  0  0
    3.4971   -3.4543    1.2579 C   0  0  0  0  0  0  0  0  0  0  0  0
    3.1085   -4.6120    1.3318 O   0  0  0  0  0  0  0  0  0  0  0  0
    4.7609   -3.0192    1.9038 C   0  0  0  0  0  0  0  0  0  0  0  0
    5.5033   -3.9085    2.6871 C   0  0  0  0  0  0  0  0  0  0  0  0
    6.6658   -3.4559    3.3011 C   0  0  0  0  0  0  0  0  0  0  0  0
    7.3846   -4.2988    4.0531 F   0  0  0  0  0  0  0  0  0  0  0  0
    7.0968   -2.1429    3.1518 C   0  0  0  0  0  0  0  0  0  0  0  0
    6.3506   -1.2738    2.3643 C   0  0  0  0  0  0  0  0  0  0  0  0
    6.7625   -0.0052    2.2203 F   0  0  0  0  0  0  0  0  0  0  0  0
    5.1727   -1.6882    1.7350 C   0  0  0  0  0  0  0  0  0  0  0  0
    4.4565   -0.8277    0.8844 N   0  0  0  0  0  0  0  0  0  0  0  0
    3.9998    0.8636   -0.9191 H   0  0  0  0  0  0  0  0  0  0  0  0
    1.5118    2.3644   -0.7138 H   0  0  0  0  0  0  0  0  0  0  0  0
    1.7596    1.5565   -2.2773 H   0  0  0  0  0  0  0  0  0  0  0  0
    5.6930    6.6734   -2.8706 H   0  0  0  0  0  0  0  0  0  0  0  0
    7.9115    7.4493   -3.6205 H   0  0  0  0  0  0  0  0  0  0  0  0
    9.3901    3.4309   -3.5467 H   0  0  0  0  0  0  0  0  0  0  0  0
    7.1737    2.6084   -2.7818 H   0  0  0  0  0  0  0  0  0  0  0  0
    1.7217   -2.7231    0.1821 H   0  0  0  0  0  0  0  0  0  0  0  0
    5.1847   -4.9381    2.8246 H   0  0  0  0  0  0  0  0  0  0  0  0
    8.0026   -1.8036    3.6409 H   0  0  0  0  0  0  0  0  0  0  0  0
    4.6487    0.1672    0.9772 H   0  0  0  0  0  0  0  0  0  0  0  0
  1  2  2  0  0  0  0
  2  3  1  0  0  0  0
  2 17  1  0  0  0  0
  3  4  1  0  0  0  0
  3 30  1  0  0  0  0
  4  5  1  0  0  0  0
  4 31  1  0  0  0  0
  4 32  1  0  0  0  0
  5  6  2  0  0  0  0
  5 16  1  0  0  0  0
  6  7  1  0  0  0  0
  7  8  1  0  0  0  0
  8  9  1  0  0  0  0
  8 16  2  0  0  0  0
  9 10  2  0  0  0  0
  9 15  1  0  0  0  0
 10 11  1  0  0  0  0
 10 33  1  0  0  0  0
 11 12  2  0  0  0  0
 11 34  1  0  0  0  0
 12 13  1  0  0  0  0
 12 14  1  0  0  0  0
 14 15  2  0  0  0  0
 14 35  1  0  0  0  0
 15 36  1  0  0  0  0
 17 18  2  0  0  0  0
 17 29  1  0  0  0  0
 18 19  1  0  0  0  0
 18 37  1  0  0  0  0
 19 20  2  0  0  0  0
 19 21  1  0  0  0  0
 21 22  2  0  0  0  0
 21 28  1  0  0  0  0
 22 23  1  0  0  0  0
 22 38  1  0  0  0  0
 23 24  1  0  0  0  0
 23 25  2  0  0  0  0
 25 26  1  0  0  0  0
 25 39  1  0  0  0  0
 26 27  1  0  0  0  0
 26 28  2  0  0  0  0
 28 29  1  0  0  0  0
 29 40  1  0  0  0  0
M  END
$$$$
