
 OpenBabel01122422413D

 41 44  0  0  0  0  0  0  0  0999 V2000
    1.4590    0.6002    0.1071 O   0  0  0  0  0  0  0  0  0  0  0  0
    2.5202   -0.0027    0.0645 C   0  0  0  0  0  0  0  0  0  0  0  0
    2.7415   -1.2353   -0.5413 N   0  0  0  0  0  0  0  0  0  0  0  0
    1.9607   -1.8778   -1.4708 C   0  0  0  0  0  0  0  0  0  0  0  0
    0.9436   -1.3132   -2.1364 C   0  0  0  0  0  0  0  0  0  0  0  0
    0.1358   -2.1056   -3.1048 C   0  0  0  0  0  0  0  0  0  0  0  0
   -0.7521   -1.5232   -3.7278 O   0  0  0  0  0  0  0  0  0  0  0  0
    0.4190   -3.4832   -3.1503 N   0  0  0  0  0  0  0  0  0  0  0  0
   -0.5121   -4.3465   -3.7918 C   0  0  0  0  0  0  0  0  0  0  0  0
   -0.9346   -4.1211   -5.1043 C   0  0  0  0  0  0  0  0  0  0  0  0
   -1.8928   -4.9548   -5.6832 C   0  0  0  0  0  0  0  0  0  0  0  0
   -2.4553   -5.9935   -4.9444 C   0  0  0  0  0  0  0  0  0  0  0  0
   -2.0458   -6.2200   -3.6309 C   0  0  0  0  0  0  0  0  0  0  0  0
   -1.0603   -5.4144   -3.0629 C   0  0  0  0  0  0  0  0  0  0  0  0
    1.5316   -4.0084   -2.5118 C   0  0  0  0  0  0  0  0  0  0  0  0
    2.3276   -3.2467   -1.7543 C   0  0  0  0  0  0  0  0  0  0  0  0
    3.7871    0.6759    0.5026 C   0  0  0  0  0  0  0  0  0  0  0  0
    3.9216    1.9504   -0.0774 C   0  0  0  0  0  0  0  0  0  0  0  0
    5.1280    2.3080   -0.6403 C   0  0  0  0  0  0  0  0  0  0  0  0
    6.1900    1.4094   -0.5896 C   0  0  0  0  0  0  0  0  0  0  0  0
    7.2932    1.6884   -1.3016 F   0  0  0  0  0  0  0  0  0  0  0  0
    6.1277    0.2389    0.1751 C   0  0  0  0  0  0  0  0  0  0  0  0
    7.1927   -0.6588    0.2945 C   0  0  0  0  0  0  0  0  0  0  0  0
    7.1790   -1.7590    1.0833 N   0  0  0  0  0  0  0  0  0  0  0  0
    6.0592   -1.9923    1.7969 C   0  0  0  0  0  0  0  0  0  0  0  0
    4.9140   -1.2222    1.6811 C   0  0  0  0  0  0  0  0  0  0  0  0
    4.9257   -0.1021    0.8231 C   0  0  0  0  0  0  0  0  0  0  0  0
    3.6200   -1.6971   -0.3494 H   0  0  0  0  0  0  0  0  0  0  0  0
    0.6405   -0.2829   -2.0180 H   0  0  0  0  0  0  0  0  0  0  0  0
   -0.5134   -3.3033   -5.6854 H   0  0  0  0  0  0  0  0  0  0  0  0
   -2.2101   -4.7806   -6.7074 H   0  0  0  0  0  0  0  0  0  0  0  0
   -3.2286   -6.6166   -5.3836 H   0  0  0  0  0  0  0  0  0  0  0  0
   -2.5093   -7.0058   -3.0401 H   0  0  0  0  0  0  0  0  0  0  0  0
   -0.7792   -5.5736   -2.0257 H   0  0  0  0  0  0  0  0  0  0  0  0
    1.7571   -5.0550   -2.6941 H   0  0  0  0  0  0  0  0  0  0  0  0
    3.2246   -3.6741   -1.3193 H   0  0  0  0  0  0  0  0  0  0  0  0
    3.0376    2.5746   -0.2272 H   0  0  0  0  0  0  0  0  0  0  0  0
    5.2192    3.2310   -1.2049 H   0  0  0  0  0  0  0  0  0  0  0  0
    8.1119   -0.5023   -0.2630 H   0  0  0  0  0  0  0  0  0  0  0  0
    6.1041   -2.8445    2.4649 H   0  0  0  0  0  0  0  0  0  0  0  0
    4.0354   -1.4748    2.2728 H   0  0  0  0  0  0  0  0  0  0  0  0
  1  2  2  0  0  0  0
  2  3  1  0  0  0  0
  2 17  1  0  0  0  0
  3  4  1  0  0  0  0
  3 28  1  0  0  0  0
  4  5  2  0  0  0  0
  4 16  1  0  0  0  0
  5  6  1  0  0  0  0
  5 29  1  0  0  0  0
  6  7  2  0  0  0  0
  6  8  1  0  0  0  0
  8  9  1  0  0  0  0
  8 15  1  0  0  0  0
  9 10  2  0  0  0  0
  9 14  1  0  0  0  0
 10 11  1  0  0  0  0
 10 30  1  0  0  0  0
 11 12  2  0  0  0  0
 11 31  1  0  0  0  0
 12 13  1  0  0  0  0
 12 32  1  0  0  0  0
 13 14  2  0  0  0  0
 13 33  1  0  0  0  0
 14 34  1  0  0  0  0
 15 16  2  0  0  0  0
 15 35  1  0  0  0  0
 16 36  1  0  0  0  0
 17 18  2  0  0  0  0
 17 27  1  0  0  0  0
 18 19  1  0  0  0  0
 18 37  1  0  0  0  0
 19 20  2  0  0  0  0
 19 38  1  0  0  0  0
 20 21  1  0  0  0  0
 20 22  1  0  0  0  0
 22 23  2  0  0  0  0
 22 27  1  0  0  0  0
 23 24  1  0  0  0  0
 23 39  1  0  0  0  0
 24 25  2  0  0  0  0
 25 26  1  0  0  0  0
 25 40  1  0  0  0  0
 26 27  2  0  0  0  0
 26 41  1  0  0  0  0
M  END
$$$$
