
 OpenBabel01122422413D

 44 47  0  0  0  0  0  0  0  0999 V2000
    2.5609   -0.9637   -2.4709 O   0  0  0  0  0  0  0  0  0  0  0  0
    2.1313   -0.1291   -1.6751 C   0  0  0  0  0  0  0  0  0  0  0  0
    0.6454    0.0316   -1.3910 C   0  0  0  0  0  0  0  0  0  0  0  0
   -0.0438    1.0106   -2.3136 C   0  0  0  0  0  0  0  0  0  0  0  0
   -0.0848    0.7662   -3.7002 C   0  0  0  0  0  0  0  0  0  0  0  0
   -0.7209    1.6410   -4.5923 C   0  0  0  0  0  0  0  0  0  0  0  0
   -1.3207    2.7523   -4.0172 C   0  0  0  0  0  0  0  0  0  0  0  0
   -2.0053    3.7485   -4.6515 O   0  0  0  0  0  0  0  0  0  0  0  0
   -2.3862    4.5719   -3.6332 C   0  0  0  0  0  0  0  0  0  0  0  0
   -2.0120    4.1986   -2.4283 N   0  0  0  0  0  0  0  0  0  0  0  0
   -1.3257    3.0329   -2.6606 C   0  0  0  0  0  0  0  0  0  0  0  0
   -0.6801    2.1514   -1.7819 C   0  0  0  0  0  0  0  0  0  0  0  0
    2.9451    0.7191   -0.9623 N   0  0  0  0  0  0  0  0  0  0  0  0
    4.3937    0.6847   -1.0780 C   0  0  0  0  0  0  0  0  0  0  0  0
    4.9187    1.5656   -2.1903 C   0  0  0  0  0  0  0  0  0  0  0  0
    5.0927    1.0356   -3.4635 C   0  0  0  0  0  0  0  0  0  0  0  0
    5.4712    1.8830   -4.5030 C   0  0  0  0  0  0  0  0  0  0  0  0
    5.5940    1.4867   -5.8184 O   0  0  0  0  0  0  0  0  0  0  0  0
    4.7813    0.4766   -6.2879 C   0  0  0  0  0  0  0  0  0  0  0  0
    3.4444    0.3142   -5.8979 C   0  0  0  0  0  0  0  0  0  0  0  0
    2.7152   -0.7894   -6.3415 C   0  0  0  0  0  0  0  0  0  0  0  0
    3.2992   -1.6824   -7.2300 C   0  0  0  0  0  0  0  0  0  0  0  0
    2.5975   -2.7449   -7.6471 F   0  0  0  0  0  0  0  0  0  0  0  0
    4.5963   -1.4737   -7.6849 C   0  0  0  0  0  0  0  0  0  0  0  0
    5.1420   -2.3204   -8.5687 F   0  0  0  0  0  0  0  0  0  0  0  0
    5.3456   -0.3970   -7.2195 C   0  0  0  0  0  0  0  0  0  0  0  0
    5.7792    3.2078   -4.2224 C   0  0  0  0  0  0  0  0  0  0  0  0
    5.6131    3.6493   -2.9215 C   0  0  0  0  0  0  0  0  0  0  0  0
    5.1657    2.8701   -1.9092 N   0  0  0  0  0  0  0  0  0  0  0  0
    0.5162    0.3303   -0.3434 H   0  0  0  0  0  0  0  0  0  0  0  0
    0.1654   -0.9512   -1.4818 H   0  0  0  0  0  0  0  0  0  0  0  0
    0.3855   -0.1320   -4.0995 H   0  0  0  0  0  0  0  0  0  0  0  0
   -0.7529    1.4616   -5.6595 H   0  0  0  0  0  0  0  0  0  0  0  0
   -2.9557    5.4478   -3.9114 H   0  0  0  0  0  0  0  0  0  0  0  0
   -0.6917    2.3597   -0.7174 H   0  0  0  0  0  0  0  0  0  0  0  0
    2.5423    1.5438   -0.5302 H   0  0  0  0  0  0  0  0  0  0  0  0
    4.7267   -0.3489   -1.2232 H   0  0  0  0  0  0  0  0  0  0  0  0
    4.7992    1.0314   -0.1217 H   0  0  0  0  0  0  0  0  0  0  0  0
    4.8939   -0.0183   -3.6332 H   0  0  0  0  0  0  0  0  0  0  0  0
    2.9726    1.0146   -5.2126 H   0  0  0  0  0  0  0  0  0  0  0  0
    1.7058   -0.9656   -5.9856 H   0  0  0  0  0  0  0  0  0  0  0  0
    6.3629   -0.2594   -7.5701 H   0  0  0  0  0  0  0  0  0  0  0  0
    6.1269    3.8812   -4.9967 H   0  0  0  0  0  0  0  0  0  0  0  0
    5.8339    4.6781   -2.6501 H   0  0  0  0  0  0  0  0  0  0  0  0
  1  2  2  0  0  0  0
  2  3  1  0  0  0  0
  2 13  1  0  0  0  0
  3  4  1  0  0  0  0
  3 30  1  0  0  0  0
  3 31  1  0  0  0  0
  4  5  2  0  0  0  0
  4 12  1  0  0  0  0
  5  6  1  0  0  0  0
  5 32  1  0  0  0  0
  6  7  2  0  0  0  0
  6 33  1  0  0  0  0
  7  8  1  0  0  0  0
  7 11  1  0  0  0  0
  8  9  1  0  0  0  0
  9 10  2  0  0  0  0
  9 34  1  0  0  0  0
 10 11  1  0  0  0  0
 11 12  2  0  0  0  0
 12 35  1  0  0  0  0
 13 14  1  0  0  0  0
 13 36  1  0  0  0  0
 14 15  1  0  0  0  0
 14 37  1  0  0  0  0
 14 38  1  0  0  0  0
 15 16  2  0  0  0  0
 15 29  1  0  0  0  0
 16 17  1  0  0  0  0
 16 39  1  0  0  0  0
 17 18  1  0  0  0  0
 17 27  2  0  0  0  0
 18 19  1  0  0  0  0
 19 20  2  0  0  0  0
 19 26  1  0  0  0  0
 20 21  1  0  0  0  0
 20 40  1  0  0  0  0
 21 22  2  0  0  0  0
 21 41  1  0  0  0  0
 22 23  1  0  0  0  0
 22 24  1  0  0  0  0
 24 25  1  0  0  0  0
 24 26  2  0  0  0  0
 26 42  1  0  0  0  0
 27 28  1  0  0  0  0
 27 43  1  0  0  0  0
 28 29  2  0  0  0  0
 28 44  1  0  0  0  0
M  END
$$$$
