
 OpenBabel01122422413D

 50 53  0  0  0  0  0  0  0  0999 V2000
    6.6343    2.1212    3.7855 C   0  0  0  0  0  0  0  0  0  0  0  0
    5.7645    2.2254    2.6591 O   0  0  0  0  0  0  0  0  0  0  0  0
    4.6566    1.4092    2.6859 C   0  0  0  0  0  0  0  0  0  0  0  0
    4.1639    0.8046    3.8529 C   0  0  0  0  0  0  0  0  0  0  0  0
    3.0080    0.0216    3.8237 C   0  0  0  0  0  0  0  0  0  0  0  0
    2.3331   -0.1700    2.6250 C   0  0  0  0  0  0  0  0  0  0  0  0
    2.8227    0.4095    1.4599 C   0  0  0  0  0  0  0  0  0  0  0  0
    3.9741    1.2229    1.4660 C   0  0  0  0  0  0  0  0  0  0  0  0
    4.4218    1.8230    0.2618 N   0  0  0  0  0  0  0  0  0  0  0  0
    3.6289    2.2353   -0.8284 C   0  0  0  0  0  0  0  0  0  0  0  0
    2.3087    2.6815   -0.6399 C   0  0  0  0  0  0  0  0  0  0  0  0
    1.4604    2.9339   -1.7178 C   0  0  0  0  0  0  0  0  0  0  0  0
    1.9373    2.7634   -3.0163 C   0  0  0  0  0  0  0  0  0  0  0  0
    1.0583    2.9604   -4.1984 C   0  0  0  0  0  0  0  0  0  0  0  0
    1.5370    3.3917   -5.2402 O   0  0  0  0  0  0  0  0  0  0  0  0
   -0.2540    2.5910   -4.0707 N   0  0  0  0  0  0  0  0  0  0  0  0
   -1.1842    2.7251   -5.1780 C   0  0  0  0  0  0  0  0  0  0  0  0
   -1.8080    4.1024   -5.2565 C   0  0  0  0  0  0  0  0  0  0  0  0
   -1.1799    5.1093   -5.9925 C   0  0  0  0  0  0  0  0  0  0  0  0
   -1.7815    6.3618   -6.0893 C   0  0  0  0  0  0  0  0  0  0  0  0
   -3.0025    6.5748   -5.4603 C   0  0  0  0  0  0  0  0  0  0  0  0
   -3.7274    7.8384   -5.5741 C   0  0  0  0  0  0  0  0  0  0  0  0
   -4.9344    7.9580   -5.0057 C   0  0  0  0  0  0  0  0  0  0  0  0
   -5.5325    6.8425   -4.2286 C   0  0  0  0  0  0  0  0  0  0  0  0
   -6.6433    6.9639   -3.7236 O   0  0  0  0  0  0  0  0  0  0  0  0
   -4.7897    5.7040   -4.1165 N   0  0  0  0  0  0  0  0  0  0  0  0
   -3.5532    5.5196   -4.7293 C   0  0  0  0  0  0  0  0  0  0  0  0
   -2.9830    4.3024   -4.6015 N   0  0  0  0  0  0  0  0  0  0  0  0
    3.2776    2.4132   -3.2232 C   0  0  0  0  0  0  0  0  0  0  0  0
    4.1183    2.1495   -2.1355 C   0  0  0  0  0  0  0  0  0  0  0  0
    7.5057    2.7569    3.6056 H   0  0  0  0  0  0  0  0  0  0  0  0
    6.9874    1.0910    3.9056 H   0  0  0  0  0  0  0  0  0  0  0  0
    6.1568    2.4815    4.7041 H   0  0  0  0  0  0  0  0  0  0  0  0
    4.6455    0.9356    4.8156 H   0  0  0  0  0  0  0  0  0  0  0  0
    2.6336   -0.4315    4.7350 H   0  0  0  0  0  0  0  0  0  0  0  0
    1.4271   -0.7680    2.5930 H   0  0  0  0  0  0  0  0  0  0  0  0
    2.2948    0.2222    0.5284 H   0  0  0  0  0  0  0  0  0  0  0  0
    5.3082    2.3115    0.3615 H   0  0  0  0  0  0  0  0  0  0  0  0
    1.9325    2.8242    0.3704 H   0  0  0  0  0  0  0  0  0  0  0  0
    0.4463    3.2698   -1.5225 H   0  0  0  0  0  0  0  0  0  0  0  0
   -0.5864    2.1240   -3.2368 H   0  0  0  0  0  0  0  0  0  0  0  0
   -1.9710    1.9744   -5.0441 H   0  0  0  0  0  0  0  0  0  0  0  0
   -0.6710    2.4910   -6.1180 H   0  0  0  0  0  0  0  0  0  0  0  0
   -0.2344    4.9178   -6.4944 H   0  0  0  0  0  0  0  0  0  0  0  0
   -1.3006    7.1454   -6.6677 H   0  0  0  0  0  0  0  0  0  0  0  0
   -3.2872    8.6525   -6.1384 H   0  0  0  0  0  0  0  0  0  0  0  0
   -5.5278    8.8605   -5.0850 H   0  0  0  0  0  0  0  0  0  0  0  0
   -5.1718    4.9268   -3.6007 H   0  0  0  0  0  0  0  0  0  0  0  0
    3.6581    2.3133   -4.2380 H   0  0  0  0  0  0  0  0  0  0  0  0
    5.1372    1.8193   -2.3231 H   0  0  0  0  0  0  0  0  0  0  0  0
  1  2  1  0  0  0  0
  1 31  1  0  0  0  0
  1 32  1  0  0  0  0
  1 33  1  0  0  0  0
  2  3  1  0  0  0  0
  3  4  2  0  0  0  0
  3  8  1  0  0  0  0
  4  5  1  0  0  0  0
  4 34  1  0  0  0  0
  5  6  2  0  0  0  0
  5 35  1  0  0  0  0
  6  7  1  0  0  0  0
  6 36  1  0  0  0  0
  7  8  2  0  0  0  0
  7 37  1  0  0  0  0
  8  9  1  0  0  0  0
  9 10  1  0  0  0  0
  9 38  1  0  0  0  0
 10 11  2  0  0  0  0
 10 30  1  0  0  0  0
 11 12  1  0  0  0  0
 11 39  1  0  0  0  0
 12 13  2  0  0  0  0
 12 40  1  0  0  0  0
 13 14  1  0  0  0  0
 13 29  1  0  0  0  0
 14 15  2  0  0  0  0
 14 16  1  0  0  0  0
 16 17  1  0  0  0  0
 16 41  1  0  0  0  0
 17 18  1  0  0  0  0
 17 42  1  0  0  0  0
 17 43  1  0  0  0  0
 18 19  2  0  0  0  0
 18 28  1  0  0  0  0
 19 20  1  0  0  0  0
 19 44  1  0  0  0  0
 20 21  2  0  0  0  0
 20 45  1  0  0  0  0
 21 22  1  0  0  0  0
 21 27  1  0  0  0  0
 22 23  2  0  0  0  0
 22 46  1  0  0  0  0
 23 24  1  0  0  0  0
 23 47  1  0  0  0  0
 24 25  2  0  0  0  0
 24 26  1  0  0  0  0
 26 27  1  0  0  0  0
 26 48  1  0  0  0  0
 27 28  2  0  0  0  0
 29 30  2  0  0  0  0
 29 49  1  0  0  0  0
 30 50  1  0  0  0  0
M  END
$$$$
