
 OpenBabel01122422413D

 42 45  0  0  0  0  0  0  0  0999 V2000
   -3.1225   -3.1447    0.5330 N   0  0  0  0  0  0  0  0  0  0  0  0
   -2.3917   -2.2461    0.5637 C   0  0  0  0  0  0  0  0  0  0  0  0
   -1.5411   -1.0993    0.6311 C   0  0  0  0  0  0  0  0  0  0  0  0
   -2.0590    0.1300    1.0604 C   0  0  0  0  0  0  0  0  0  0  0  0
   -1.2198    1.2366    1.1782 C   0  0  0  0  0  0  0  0  0  0  0  0
    0.1065    1.0871    0.8248 C   0  0  0  0  0  0  0  0  0  0  0  0
    0.6250   -0.0710    0.3699 N   0  0  0  0  0  0  0  0  0  0  0  0
   -0.1892   -1.1599    0.3183 C   0  0  0  0  0  0  0  0  0  0  0  0
    0.3701   -2.3879   -0.0441 O   0  0  0  0  0  0  0  0  0  0  0  0
    1.7131   -2.5604    0.2259 C   0  0  0  0  0  0  0  0  0  0  0  0
    2.2940   -2.1158    1.4113 C   0  0  0  0  0  0  0  0  0  0  0  0
    3.6726   -2.1913    1.5929 C   0  0  0  0  0  0  0  0  0  0  0  0
    4.4964   -2.7668    0.6254 C   0  0  0  0  0  0  0  0  0  0  0  0
    5.9107   -2.7974    0.7391 N   0  0  0  0  0  0  0  0  0  0  0  0
    6.6486   -2.1491    1.7190 C   0  0  0  0  0  0  0  0  0  0  0  0
    6.1991   -1.4419    2.6149 O   0  0  0  0  0  0  0  0  0  0  0  0
    8.1310   -2.2897    1.6604 C   0  0  0  0  0  0  0  0  0  0  0  0
    8.8930   -2.3658    2.8621 C   0  0  0  0  0  0  0  0  0  0  0  0
    8.3577   -2.5003    4.1701 C   0  0  0  0  0  0  0  0  0  0  0  0
    9.2032   -2.5283    5.2652 C   0  0  0  0  0  0  0  0  0  0  0  0
   10.5372   -2.4360    5.1603 N   0  0  0  0  0  0  0  0  0  0  0  0
   11.0316   -2.3242    3.9000 C   0  0  0  0  0  0  0  0  0  0  0  0
   10.2916   -2.2998    2.7244 C   0  0  0  0  0  0  0  0  0  0  0  0
   10.9108   -2.2140    1.5284 N   0  0  0  0  0  0  0  0  0  0  0  0
   10.1369   -2.1759    0.4368 C   0  0  0  0  0  0  0  0  0  0  0  0
   10.8281   -2.0851   -0.7256 O   0  0  0  0  0  0  0  0  0  0  0  0
    8.7675   -2.2002    0.4241 C   0  0  0  0  0  0  0  0  0  0  0  0
    3.8950   -3.3280   -0.5109 C   0  0  0  0  0  0  0  0  0  0  0  0
    2.5061   -3.2209   -0.7125 C   0  0  0  0  0  0  0  0  0  0  0  0
   -3.1107    0.2284    1.3238 H   0  0  0  0  0  0  0  0  0  0  0  0
   -1.5896    2.1898    1.5406 H   0  0  0  0  0  0  0  0  0  0  0  0
    0.8147    1.9069    0.9127 H   0  0  0  0  0  0  0  0  0  0  0  0
    1.6975   -1.6424    2.1859 H   0  0  0  0  0  0  0  0  0  0  0  0
    4.0608   -1.7642    2.5099 H   0  0  0  0  0  0  0  0  0  0  0  0
    6.4018   -3.2987    0.0115 H   0  0  0  0  0  0  0  0  0  0  0  0
    7.2889   -2.5783    4.3466 H   0  0  0  0  0  0  0  0  0  0  0  0
    8.8118   -2.6260    6.2740 H   0  0  0  0  0  0  0  0  0  0  0  0
   12.1144   -2.2460    3.8524 H   0  0  0  0  0  0  0  0  0  0  0  0
   11.7430   -2.0619   -0.3884 H   0  0  0  0  0  0  0  0  0  0  0  0
    8.2338   -2.0996   -0.5133 H   0  0  0  0  0  0  0  0  0  0  0  0
    4.4925   -3.8222   -1.2711 H   0  0  0  0  0  0  0  0  0  0  0  0
    2.0582   -3.6253   -1.6159 H   0  0  0  0  0  0  0  0  0  0  0  0
  1  2  3  0  0  0  0
  2  3  1  0  0  0  0
  3  4  2  0  0  0  0
  3  8  1  0  0  0  0
  4  5  1  0  0  0  0
  4 30  1  0  0  0  0
  5  6  2  0  0  0  0
  5 31  1  0  0  0  0
  6  7  1  0  0  0  0
  6 32  1  0  0  0  0
  7  8  2  0  0  0  0
  8  9  1  0  0  0  0
  9 10  1  0  0  0  0
 10 11  2  0  0  0  0
 10 29  1  0  0  0  0
 11 12  1  0  0  0  0
 11 33  1  0  0  0  0
 12 13  2  0  0  0  0
 12 34  1  0  0  0  0
 13 14  1  0  0  0  0
 13 28  1  0  0  0  0
 14 15  1  0  0  0  0
 14 35  1  0  0  0  0
 15 16  2  0  0  0  0
 15 17  1  0  0  0  0
 17 18  2  0  0  0  0
 17 27  1  0  0  0  0
 18 19  1  0  0  0  0
 18 23  1  0  0  0  0
 19 20  2  0  0  0  0
 19 36  1  0  0  0  0
 20 21  1  0  0  0  0
 20 37  1  0  0  0  0
 21 22  2  0  0  0  0
 22 23  1  0  0  0  0
 22 38  1  0  0  0  0
 23 24  2  0  0  0  0
 24 25  1  0  0  0  0
 25 26  1  0  0  0  0
 25 27  2  0  0  0  0
 26 39  1  0  0  0  0
 27 40  1  0  0  0  0
 28 29  2  0  0  0  0
 28 41  1  0  0  0  0
 29 42  1  0  0  0  0
M  END
$$$$
