
 OpenBabel01122422413D

 51 54  0  0  1  0  0  0  0  0999 V2000
    0.7886   -0.1197   -0.2728 O   0  0  0  0  0  0  0  0  0  0  0  0
    1.9495    0.2309   -0.1071 C   0  0  0  0  0  0  0  0  0  0  0  0
    2.6658    0.1381    1.0782 N   0  0  0  0  0  0  0  0  0  0  0  0
    2.1719   -0.4534    2.2616 C   0  0  0  0  0  0  0  0  0  0  0  0
    1.1076   -1.3561    2.2527 C   0  0  0  0  0  0  0  0  0  0  0  0
    0.5630   -1.8299    3.4439 C   0  0  0  0  0  0  0  0  0  0  0  0
    1.0865   -1.4192    4.6715 C   0  0  0  0  0  0  0  0  0  0  0  0
    0.4214   -1.8416    5.9580 C   0  0  0  0  0  0  0  0  0  0  0  0
    0.3521   -3.3573    6.1655 C   0  0  0  0  0  0  0  0  0  0  0  0
    1.7333   -4.0187    6.2503 C   0  0  3  0  0  0  0  0  0  0  0  0
    2.4847   -3.4652    7.3304 O   0  0  0  0  0  0  0  0  0  0  0  0
    1.6004   -5.5228    6.3907 C   0  0  0  0  0  0  0  0  0  0  0  0
    1.5542   -6.3160    5.2316 C   0  0  0  0  0  0  0  0  0  0  0  0
    1.4212   -7.7026    5.3189 C   0  0  0  0  0  0  0  0  0  0  0  0
    1.3255   -8.3155    6.5654 C   0  0  0  0  0  0  0  0  0  0  0  0
    1.3480   -7.5417    7.7232 C   0  0  0  0  0  0  0  0  0  0  0  0
    1.4782   -6.1540    7.6375 C   0  0  0  0  0  0  0  0  0  0  0  0
    2.2095   -0.5800    4.6800 C   0  0  0  0  0  0  0  0  0  0  0  0
    2.7611   -0.1108    3.4806 C   0  0  0  0  0  0  0  0  0  0  0  0
    2.6922    0.7576   -1.2770 C   0  0  0  0  0  0  0  0  0  0  0  0
    3.6779    1.7464   -1.1418 C   0  0  0  0  0  0  0  0  0  0  0  0
    4.5367    2.0277   -2.2040 C   0  0  0  0  0  0  0  0  0  0  0  0
    4.5033    1.2292   -3.3467 C   0  0  0  0  0  0  0  0  0  0  0  0
    3.5340    0.2278   -3.4614 C   0  0  0  0  0  0  0  0  0  0  0  0
    2.5437    0.1166   -2.5043 C   0  0  0  0  0  0  0  0  0  0  0  0
    1.4032   -0.7226   -2.8738 C   0  0  0  0  0  0  0  0  0  0  0  0
    1.5036   -1.7265   -3.6870 N   0  0  0  0  0  0  0  0  0  0  0  0
    2.7231   -1.8992   -4.2746 N   0  0  0  0  0  0  0  0  0  0  0  0
    3.6282   -0.8659   -4.4586 C   0  0  0  0  0  0  0  0  0  0  0  0
    4.5209   -0.8948   -5.2857 O   0  0  0  0  0  0  0  0  0  0  0  0
    3.5783    0.5689    1.1458 H   0  0  0  0  0  0  0  0  0  0  0  0
    0.6773   -1.7173    1.3239 H   0  0  0  0  0  0  0  0  0  0  0  0
   -0.2812   -2.5128    3.3917 H   0  0  0  0  0  0  0  0  0  0  0  0
   -0.6017   -1.4416    5.9432 H   0  0  0  0  0  0  0  0  0  0  0  0
    0.9142   -1.3687    6.8144 H   0  0  0  0  0  0  0  0  0  0  0  0
   -0.2394   -3.8222    5.3671 H   0  0  0  0  0  0  0  0  0  0  0  0
   -0.1977   -3.5338    7.0993 H   0  0  0  0  0  0  0  0  0  0  0  0
    2.3132   -3.8111    5.3438 H   0  0  0  0  0  0  0  0  0  0  0  0
    1.9257   -3.4956    8.1223 H   0  0  0  0  0  0  0  0  0  0  0  0
    1.6247   -5.8542    4.2482 H   0  0  0  0  0  0  0  0  0  0  0  0
    1.3957   -8.3035    4.4136 H   0  0  0  0  0  0  0  0  0  0  0  0
    1.2332   -9.3958    6.6351 H   0  0  0  0  0  0  0  0  0  0  0  0
    1.2680   -8.0185    8.6965 H   0  0  0  0  0  0  0  0  0  0  0  0
    1.4898   -5.5785    8.5582 H   0  0  0  0  0  0  0  0  0  0  0  0
    2.6447   -0.2626    5.6247 H   0  0  0  0  0  0  0  0  0  0  0  0
    3.6098    0.5663    3.5259 H   0  0  0  0  0  0  0  0  0  0  0  0
    3.7830    2.3057   -0.2162 H   0  0  0  0  0  0  0  0  0  0  0  0
    5.2734    2.8217   -2.1228 H   0  0  0  0  0  0  0  0  0  0  0  0
    5.2442    1.3572   -4.1358 H   0  0  0  0  0  0  0  0  0  0  0  0
    0.4039   -0.4566   -2.4909 H   0  0  0  0  0  0  0  0  0  0  0  0
    2.8111   -2.7151   -4.8698 H   0  0  0  0  0  0  0  0  0  0  0  0
  1  2  2  0  0  0  0
  2  3  1  0  0  0  0
  2 20  1  0  0  0  0
  3  4  1  0  0  0  0
  3 31  1  0  0  0  0
  4  5  2  0  0  0  0
  4 19  1  0  0  0  0
  5  6  1  0  0  0  0
  5 32  1  0  0  0  0
  6  7  2  0  0  0  0
  6 33  1  0  0  0  0
  7  8  1  0  0  0  0
  7 18  1  0  0  0  0
  8  9  1  0  0  0  0
  8 34  1  0  0  0  0
  8 35  1  0  0  0  0
  9 10  1  0  0  0  0
  9 36  1  0  0  0  0
  9 37  1  0  0  0  0
 10 11  1  0  0  0  0
 10 12  1  0  0  0  0
 10 38  1  0  0  0  0
 11 39  1  0  0  0  0
 12 13  2  0  0  0  0
 12 17  1  0  0  0  0
 13 14  1  0  0  0  0
 13 40  1  0  0  0  0
 14 15  2  0  0  0  0
 14 41  1  0  0  0  0
 15 16  1  0  0  0  0
 15 42  1  0  0  0  0
 16 17  2  0  0  0  0
 16 43  1  0  0  0  0
 17 44  1  0  0  0  0
 18 19  2  0  0  0  0
 18 45  1  0  0  0  0
 19 46  1  0  0  0  0
 20 21  2  0  0  0  0
 20 25  1  0  0  0  0
 21 22  1  0  0  0  0
 21 47  1  0  0  0  0
 22 23  2  0  0  0  0
 22 48  1  0  0  0  0
 23 24  1  0  0  0  0
 23 49  1  0  0  0  0
 24 25  2  0  0  0  0
 24 29  1  0  0  0  0
 25 26  1  0  0  0  0
 26 27  2  0  0  0  0
 26 50  1  0  0  0  0
 27 28  1  0  0  0  0
 28 29  1  0  0  0  0
 28 51  1  0  0  0  0
 29 30  2  0  0  0  0
M  END
$$$$
