
 OpenBabel01122422413D

 53 56  0  0  1  0  0  0  0  0999 V2000
    0.9860    0.2318    0.4253 C   0  0  0  0  0  0  0  0  0  0  0  0
    2.4610    0.2092    0.2109 C   0  0  0  0  0  0  0  0  0  0  0  0
    3.3113    1.2897   -0.0228 C   0  0  0  0  0  0  0  0  0  0  0  0
    2.8684    2.6743   -0.1975 C   0  0  0  0  0  0  0  0  0  0  0  0
    1.7288    2.9783   -0.5420 O   0  0  0  0  0  0  0  0  0  0  0  0
    3.8075    3.6254    0.1056 N   0  0  0  0  0  0  0  0  0  0  0  0
    3.5042    5.0516    0.0287 C   0  0  3  0  0  0  0  0  0  0  0  0
    2.8489    5.5532    1.3455 C   0  0  0  0  0  0  0  0  0  0  0  0
    1.7259    4.8711    1.7396 N   0  0  0  0  0  0  0  0  0  0  0  0
    3.2097    6.5355    1.9882 O   0  0  0  0  0  0  0  0  0  0  0  0
    4.7496    5.8212   -0.3694 C   0  0  0  0  0  0  0  0  0  0  0  0
    4.7729    6.5458   -1.5674 C   0  0  0  0  0  0  0  0  0  0  0  0
    5.9242    7.2320   -1.9632 C   0  0  0  0  0  0  0  0  0  0  0  0
    7.0842    7.1991   -1.1762 C   0  0  0  0  0  0  0  0  0  0  0  0
    8.2567    7.8657   -1.5671 C   0  0  0  0  0  0  0  0  0  0  0  0
    9.4052    7.8126   -0.7755 C   0  0  0  0  0  0  0  0  0  0  0  0
    9.3930    7.1007    0.4202 C   0  0  0  0  0  0  0  0  0  0  0  0
    8.2326    6.4398    0.8264 C   0  0  0  0  0  0  0  0  0  0  0  0
    7.0715    6.4759    0.0387 C   0  0  0  0  0  0  0  0  0  0  0  0
    5.9047    5.8067    0.4295 C   0  0  0  0  0  0  0  0  0  0  0  0
    4.6334    0.7582   -0.0697 C   0  0  0  0  0  0  0  0  0  0  0  0
    4.5467   -0.6078    0.0657 C   0  0  0  0  0  0  0  0  0  0  0  0
    3.2207   -0.9456    0.2007 N   0  0  0  0  0  0  0  0  0  0  0  0
    2.7328   -2.3276    0.1867 C   0  0  0  0  0  0  0  0  0  0  0  0
    2.7021   -2.9397    1.5646 C   0  0  0  0  0  0  0  0  0  0  0  0
    1.5220   -2.9340    2.3225 C   0  0  0  0  0  0  0  0  0  0  0  0
    1.5097   -3.4189    3.6295 C   0  0  0  0  0  0  0  0  0  0  0  0
    2.6709   -3.9466    4.1868 C   0  0  0  0  0  0  0  0  0  0  0  0
    3.8394   -4.0056    3.4306 C   0  0  0  0  0  0  0  0  0  0  0  0
    3.8566   -3.5048    2.1269 C   0  0  0  0  0  0  0  0  0  0  0  0
    0.6678    1.1878    0.8541 H   0  0  0  0  0  0  0  0  0  0  0  0
    0.6651   -0.5288    1.1354 H   0  0  0  0  0  0  0  0  0  0  0  0
    0.4573    0.0826   -0.5199 H   0  0  0  0  0  0  0  0  0  0  0  0
    4.6306    3.3377    0.6141 H   0  0  0  0  0  0  0  0  0  0  0  0
    2.7419    5.1949   -0.7493 H   0  0  0  0  0  0  0  0  0  0  0  0
    1.2703    4.2109    1.1140 H   0  0  0  0  0  0  0  0  0  0  0  0
    1.2037    5.2391    2.5230 H   0  0  0  0  0  0  0  0  0  0  0  0
    3.8939    6.5867   -2.2091 H   0  0  0  0  0  0  0  0  0  0  0  0
    5.9096    7.7899   -2.8970 H   0  0  0  0  0  0  0  0  0  0  0  0
    8.2835    8.4301   -2.4961 H   0  0  0  0  0  0  0  0  0  0  0  0
   10.3073    8.3302   -1.0915 H   0  0  0  0  0  0  0  0  0  0  0  0
   10.2842    7.0595    1.0401 H   0  0  0  0  0  0  0  0  0  0  0  0
    8.2410    5.8914    1.7659 H   0  0  0  0  0  0  0  0  0  0  0  0
    5.8918    5.2699    1.3771 H   0  0  0  0  0  0  0  0  0  0  0  0
    5.5528    1.3059   -0.2334 H   0  0  0  0  0  0  0  0  0  0  0  0
    5.3182   -1.3679    0.0504 H   0  0  0  0  0  0  0  0  0  0  0  0
    3.3940   -2.9027   -0.4744 H   0  0  0  0  0  0  0  0  0  0  0  0
    1.7424   -2.3352   -0.2821 H   0  0  0  0  0  0  0  0  0  0  0  0
    0.5978   -2.5431    1.9051 H   0  0  0  0  0  0  0  0  0  0  0  0
    0.5943   -3.3774    4.2140 H   0  0  0  0  0  0  0  0  0  0  0  0
    2.6644   -4.3106    5.2107 H   0  0  0  0  0  0  0  0  0  0  0  0
    4.7418   -4.4314    3.8615 H   0  0  0  0  0  0  0  0  0  0  0  0
    4.7824   -3.5515    1.5575 H   0  0  0  0  0  0  0  0  0  0  0  0
  1  2  1  0  0  0  0
  1 31  1  0  0  0  0
  1 32  1  0  0  0  0
  1 33  1  0  0  0  0
  2  3  2  0  0  0  0
  2 23  1  0  0  0  0
  3  4  1  0  0  0  0
  3 21  1  0  0  0  0
  4  5  2  0  0  0  0
  4  6  1  0  0  0  0
  6  7  1  0  0  0  0
  6 34  1  0  0  0  0
  7  8  1  0  0  0  0
  7 11  1  0  0  0  0
  7 35  1  0  0  0  0
  8  9  1  0  0  0  0
  8 10  2  0  0  0  0
  9 36  1  0  0  0  0
  9 37  1  0  0  0  0
 11 12  2  0  0  0  0
 11 20  1  0  0  0  0
 12 13  1  0  0  0  0
 12 38  1  0  0  0  0
 13 14  2  0  0  0  0
 13 39  1  0  0  0  0
 14 15  1  0  0  0  0
 14 19  1  0  0  0  0
 15 16  2  0  0  0  0
 15 40  1  0  0  0  0
 16 17  1  0  0  0  0
 16 41  1  0  0  0  0
 17 18  2  0  0  0  0
 17 42  1  0  0  0  0
 18 19  1  0  0  0  0
 18 43  1  0  0  0  0
 19 20  2  0  0  0  0
 20 44  1  0  0  0  0
 21 22  2  0  0  0  0
 21 45  1  0  0  0  0
 22 23  1  0  0  0  0
 22 46  1  0  0  0  0
 23 24  1  0  0  0  0
 24 25  1  0  0  0  0
 24 47  1  0  0  0  0
 24 48  1  0  0  0  0
 25 26  2  0  0  0  0
 25 30  1  0  0  0  0
 26 27  1  0  0  0  0
 26 49  1  0  0  0  0
 27 28  2  0  0  0  0
 27 50  1  0  0  0  0
 28 29  1  0  0  0  0
 28 51  1  0  0  0  0
 29 30  2  0  0  0  0
 29 52  1  0  0  0  0
 30 53  1  0  0  0  0
M  END
$$$$
