
 OpenBabel01122422413D

 42 45  0  0  0  0  0  0  0  0999 V2000
    1.1476    0.0023    0.0189 C   0  0  0  0  0  0  0  0  0  0  0  0
    2.6336   -0.0049    0.2278 C   0  0  0  0  0  0  0  0  0  0  0  0
    3.2204   -1.2065    0.0740 N   0  0  0  0  0  0  0  0  0  0  0  0
    4.5438   -1.2938    0.2052 C   0  0  0  0  0  0  0  0  0  0  0  0
    5.1625   -2.5275    0.0403 N   0  0  0  0  0  0  0  0  0  0  0  0
    4.4773   -3.7225    0.0591 C   0  0  0  0  0  0  0  0  0  0  0  0
    3.3068   -3.9129    0.3602 O   0  0  0  0  0  0  0  0  0  0  0  0
    5.3189   -4.9451   -0.2304 C   0  0  0  0  0  0  0  0  0  0  0  0
    6.5556   -4.9304    0.1960 N   0  0  0  0  0  0  0  0  0  0  0  0
    7.3211   -6.0605   -0.0046 N   0  0  0  0  0  0  0  0  0  0  0  0
    8.6120   -6.0370    0.6134 C   0  0  0  0  0  0  0  0  0  0  0  0
    8.8207   -5.2988    1.7938 C   0  0  0  0  0  0  0  0  0  0  0  0
   10.0540   -5.3143    2.4536 C   0  0  0  0  0  0  0  0  0  0  0  0
   11.1160   -6.0508    1.9346 C   0  0  0  0  0  0  0  0  0  0  0  0
   10.9461   -6.7663    0.7531 C   0  0  0  0  0  0  0  0  0  0  0  0
    9.7099   -6.7565    0.1062 C   0  0  0  0  0  0  0  0  0  0  0  0
    9.6065   -7.4456   -1.0419 F   0  0  0  0  0  0  0  0  0  0  0  0
    6.8007   -7.2176   -0.5556 C   0  0  0  0  0  0  0  0  0  0  0  0
    5.5612   -7.3543   -1.0223 C   0  0  0  0  0  0  0  0  0  0  0  0
    4.7300   -6.1500   -0.9446 C   0  0  0  0  0  0  0  0  0  0  0  0
    3.6224   -6.1272   -1.4561 O   0  0  0  0  0  0  0  0  0  0  0  0
    5.3372   -0.2462    0.4488 N   0  0  0  0  0  0  0  0  0  0  0  0
    4.7489    0.9528    0.6325 C   0  0  0  0  0  0  0  0  0  0  0  0
    5.5365    2.0654    0.9251 C   0  0  0  0  0  0  0  0  0  0  0  0
    4.9931    3.3423    1.1167 C   0  0  0  0  0  0  0  0  0  0  0  0
    3.6208    3.5236    1.0268 C   0  0  0  0  0  0  0  0  0  0  0  0
    2.8171    2.4286    0.7437 C   0  0  0  0  0  0  0  0  0  0  0  0
    1.4923    2.6294    0.6744 F   0  0  0  0  0  0  0  0  0  0  0  0
    3.3633    1.1408    0.5367 C   0  0  0  0  0  0  0  0  0  0  0  0
    0.7961   -0.9879   -0.2905 H   0  0  0  0  0  0  0  0  0  0  0  0
    0.8783    0.7059   -0.7748 H   0  0  0  0  0  0  0  0  0  0  0  0
    0.6282    0.2681    0.9444 H   0  0  0  0  0  0  0  0  0  0  0  0
    6.1705   -2.5228    0.0174 H   0  0  0  0  0  0  0  0  0  0  0  0
    8.0013   -4.7339    2.2330 H   0  0  0  0  0  0  0  0  0  0  0  0
   10.1769   -4.7572    3.3792 H   0  0  0  0  0  0  0  0  0  0  0  0
   12.0731   -6.0654    2.4493 H   0  0  0  0  0  0  0  0  0  0  0  0
   11.7666   -7.3354    0.3271 H   0  0  0  0  0  0  0  0  0  0  0  0
    7.4666   -8.0753   -0.5663 H   0  0  0  0  0  0  0  0  0  0  0  0
    5.1541   -8.2621   -1.4399 H   0  0  0  0  0  0  0  0  0  0  0  0
    6.6142    1.9374    1.0065 H   0  0  0  0  0  0  0  0  0  0  0  0
    5.6419    4.1872    1.3349 H   0  0  0  0  0  0  0  0  0  0  0  0
    3.1704    4.5007    1.1722 H   0  0  0  0  0  0  0  0  0  0  0  0
  1  2  1  0  0  0  0
  1 30  1  0  0  0  0
  1 31  1  0  0  0  0
  1 32  1  0  0  0  0
  2  3  2  0  0  0  0
  2 29  1  0  0  0  0
  3  4  1  0  0  0  0
  4  5  1  0  0  0  0
  4 22  2  0  0  0  0
  5  6  1  0  0  0  0
  5 33  1  0  0  0  0
  6  7  2  0  0  0  0
  6  8  1  0  0  0  0
  8  9  2  0  0  0  0
  8 20  1  0  0  0  0
  9 10  1  0  0  0  0
 10 11  1  0  0  0  0
 10 18  1  0  0  0  0
 11 12  2  0  0  0  0
 11 16  1  0  0  0  0
 12 13  1  0  0  0  0
 12 34  1  0  0  0  0
 13 14  2  0  0  0  0
 13 35  1  0  0  0  0
 14 15  1  0  0  0  0
 14 36  1  0  0  0  0
 15 16  2  0  0  0  0
 15 37  1  0  0  0  0
 16 17  1  0  0  0  0
 18 19  2  0  0  0  0
 18 38  1  0  0  0  0
 19 20  1  0  0  0  0
 19 39  1  0  0  0  0
 20 21  2  0  0  0  0
 22 23  1  0  0  0  0
 23 24  2  0  0  0  0
 23 29  1  0  0  0  0
 24 25  1  0  0  0  0
 24 40  1  0  0  0  0
 25 26  2  0  0  0  0
 25 41  1  0  0  0  0
 26 27  1  0  0  0  0
 26 42  1  0  0  0  0
 27 28  1  0  0  0  0
 27 29  2  0  0  0  0
M  END
$$$$
