
 OpenBabel01122422413D

 45 48  0  0  0  0  0  0  0  0999 V2000
    3.1311    0.1027    2.4128 O   0  0  0  0  0  0  0  0  0  0  0  0
    3.2977    0.0887    1.1976 C   0  0  0  0  0  0  0  0  0  0  0  0
    2.9366    1.1535    0.4071 N   0  0  0  0  0  0  0  0  0  0  0  0
    2.2593    2.2992    0.9629 C   0  0  0  0  0  0  0  0  0  0  0  0
    3.2192    3.3518    1.4257 C   0  0  0  0  0  0  0  0  0  0  0  0
    3.6720    4.3696    0.5791 C   0  0  0  0  0  0  0  0  0  0  0  0
    4.5170    5.3575    1.0778 C   0  0  0  0  0  0  0  0  0  0  0  0
    4.8817    5.2938    2.4138 C   0  0  0  0  0  0  0  0  0  0  0  0
    5.6383    6.3459    2.9168 O   0  0  0  0  0  0  0  0  0  0  0  0
    5.4418    6.6805    4.2403 C   0  0  0  0  0  0  0  0  0  0  0  0
    6.5641    7.0935    4.9637 C   0  0  0  0  0  0  0  0  0  0  0  0
    6.4370    7.4239    6.3161 C   0  0  0  0  0  0  0  0  0  0  0  0
    5.1885    7.3462    6.9284 C   0  0  0  0  0  0  0  0  0  0  0  0
    5.0725    7.6337    8.2310 F   0  0  0  0  0  0  0  0  0  0  0  0
    4.0591    6.9773    6.2083 C   0  0  0  0  0  0  0  0  0  0  0  0
    4.1821    6.6677    4.8557 C   0  0  0  0  0  0  0  0  0  0  0  0
    4.5222    4.2841    3.2368 N   0  0  0  0  0  0  0  0  0  0  0  0
    3.6969    3.3445    2.7323 C   0  0  0  0  0  0  0  0  0  0  0  0
    3.8406   -1.0371    0.4837 C   0  0  0  0  0  0  0  0  0  0  0  0
    4.6452   -1.0513   -0.6440 C   0  0  0  0  0  0  0  0  0  0  0  0
    5.0382   -2.3849   -0.8018 C   0  0  0  0  0  0  0  0  0  0  0  0
    4.5397   -3.1738    0.1456 N   0  0  0  0  0  0  0  0  0  0  0  0
    3.7213   -2.3660    0.8811 N   0  0  0  0  0  0  0  0  0  0  0  0
    2.8595   -2.9529    1.8410 C   0  0  0  0  0  0  0  0  0  0  0  0
    3.2022   -4.1662    2.4493 C   0  0  0  0  0  0  0  0  0  0  0  0
    2.3508   -4.7139    3.4061 C   0  0  0  0  0  0  0  0  0  0  0  0
    1.1663   -4.0537    3.6917 C   0  0  0  0  0  0  0  0  0  0  0  0
    0.7809   -2.9111    3.0878 N   0  0  0  0  0  0  0  0  0  0  0  0
    1.6397   -2.3830    2.1815 C   0  0  0  0  0  0  0  0  0  0  0  0
    3.0904    1.1181   -0.5894 H   0  0  0  0  0  0  0  0  0  0  0  0
    1.6097    1.9855    1.7893 H   0  0  0  0  0  0  0  0  0  0  0  0
    1.6011    2.7023    0.1843 H   0  0  0  0  0  0  0  0  0  0  0  0
    3.3487    4.4114   -0.4573 H   0  0  0  0  0  0  0  0  0  0  0  0
    4.8550    6.1750    0.4519 H   0  0  0  0  0  0  0  0  0  0  0  0
    7.5371    7.1391    4.4850 H   0  0  0  0  0  0  0  0  0  0  0  0
    7.2988    7.7265    6.8975 H   0  0  0  0  0  0  0  0  0  0  0  0
    3.0951    6.9182    6.7027 H   0  0  0  0  0  0  0  0  0  0  0  0
    3.2949    6.3781    4.2990 H   0  0  0  0  0  0  0  0  0  0  0  0
    3.4065    2.5697    3.4392 H   0  0  0  0  0  0  0  0  0  0  0  0
    4.9716   -0.2012   -1.2272 H   0  0  0  0  0  0  0  0  0  0  0  0
    5.6921   -2.8134   -1.5517 H   0  0  0  0  0  0  0  0  0  0  0  0
    4.1389   -4.6663    2.2144 H   0  0  0  0  0  0  0  0  0  0  0  0
    2.6096   -5.6304    3.9233 H   0  0  0  0  0  0  0  0  0  0  0  0
    0.4743   -4.4385    4.4352 H   0  0  0  0  0  0  0  0  0  0  0  0
    1.2592   -1.4823    1.7101 H   0  0  0  0  0  0  0  0  0  0  0  0
  1  2  2  0  0  0  0
  2  3  1  0  0  0  0
  2 19  1  0  0  0  0
  3  4  1  0  0  0  0
  3 30  1  0  0  0  0
  4  5  1  0  0  0  0
  4 31  1  0  0  0  0
  4 32  1  0  0  0  0
  5  6  2  0  0  0  0
  5 18  1  0  0  0  0
  6  7  1  0  0  0  0
  6 33  1  0  0  0  0
  7  8  2  0  0  0  0
  7 34  1  0  0  0  0
  8  9  1  0  0  0  0
  8 17  1  0  0  0  0
  9 10  1  0  0  0  0
 10 11  2  0  0  0  0
 10 16  1  0  0  0  0
 11 12  1  0  0  0  0
 11 35  1  0  0  0  0
 12 13  2  0  0  0  0
 12 36  1  0  0  0  0
 13 14  1  0  0  0  0
 13 15  1  0  0  0  0
 15 16  2  0  0  0  0
 15 37  1  0  0  0  0
 16 38  1  0  0  0  0
 17 18  2  0  0  0  0
 18 39  1  0  0  0  0
 19 20  2  0  0  0  0
 19 23  1  0  0  0  0
 20 21  1  0  0  0  0
 20 40  1  0  0  0  0
 21 22  2  0  0  0  0
 21 41  1  0  0  0  0
 22 23  1  0  0  0  0
 23 24  1  0  0  0  0
 24 25  2  0  0  0  0
 24 29  1  0  0  0  0
 25 26  1  0  0  0  0
 25 42  1  0  0  0  0
 26 27  2  0  0  0  0
 26 43  1  0  0  0  0
 27 28  1  0  0  0  0
 27 44  1  0  0  0  0
 28 29  2  0  0  0  0
 29 45  1  0  0  0  0
M  END
$$$$
