
 OpenBabel01122422413D

 43 46  0  0  0  0  0  0  0  0999 V2000
    7.9475   -0.4094    6.9079 N   0  0  0  0  0  0  0  0  0  0  0  0
    7.9092   -0.3387    5.6495 C   0  0  0  0  0  0  0  0  0  0  0  0
    7.8631   -0.2536    4.1326 C   0  0  0  0  0  0  0  0  0  0  0  0
    7.7844   -1.3808    3.3982 C   0  0  0  0  0  0  0  0  0  0  0  0
    7.7469   -1.2985    2.0059 N   0  0  0  0  0  0  0  0  0  0  0  0
    7.6655   -2.2893    1.0360 C   0  0  0  0  0  0  0  0  0  0  0  0
    7.5730   -3.7110    1.2750 C   0  0  0  0  0  0  0  0  0  0  0  0
    7.5347   -4.2089    2.3953 O   0  0  0  0  0  0  0  0  0  0  0  0
    7.5043   -4.4917    0.1411 N   0  0  0  0  0  0  0  0  0  0  0  0
    7.4757   -5.9361    0.2138 C   0  0  0  0  0  0  0  0  0  0  0  0
    8.8498   -6.5769    0.2193 C   0  0  0  0  0  0  0  0  0  0  0  0
    8.9943   -7.8338    0.7993 C   0  0  0  0  0  0  0  0  0  0  0  0
   10.2041   -8.5117    0.6595 C   0  0  0  0  0  0  0  0  0  0  0  0
   10.4286   -9.7942    1.1177 O   0  0  0  0  0  0  0  0  0  0  0  0
    9.3731  -10.6817    1.1466 C   0  0  0  0  0  0  0  0  0  0  0  0
    8.3895  -10.7421    0.1563 C   0  0  0  0  0  0  0  0  0  0  0  0
    7.3027  -11.5896    0.3253 C   0  0  0  0  0  0  0  0  0  0  0  0
    6.3109  -11.5701   -0.5746 F   0  0  0  0  0  0  0  0  0  0  0  0
    7.2164  -12.4365    1.4236 C   0  0  0  0  0  0  0  0  0  0  0  0
    8.2463  -12.4481    2.3637 C   0  0  0  0  0  0  0  0  0  0  0  0
    9.3251  -11.5693    2.2258 C   0  0  0  0  0  0  0  0  0  0  0  0
   11.2725   -7.8719    0.0463 C   0  0  0  0  0  0  0  0  0  0  0  0
   11.0551   -6.6100   -0.4823 C   0  0  0  0  0  0  0  0  0  0  0  0
    9.8656   -5.9649   -0.4431 N   0  0  0  0  0  0  0  0  0  0  0  0
    7.6659   -1.5851   -0.1556 C   0  0  0  0  0  0  0  0  0  0  0  0
    7.7415   -0.2327    0.0317 N   0  0  0  0  0  0  0  0  0  0  0  0
    7.7894   -0.0745    1.3327 C   0  0  0  0  0  0  0  0  0  0  0  0
    7.8709    1.1142    2.1160 C   0  0  0  0  0  0  0  0  0  0  0  0
    7.9059    1.0356    3.4573 C   0  0  0  0  0  0  0  0  0  0  0  0
    7.7550   -2.3648    3.8507 H   0  0  0  0  0  0  0  0  0  0  0  0
    7.7657   -4.1035   -0.7508 H   0  0  0  0  0  0  0  0  0  0  0  0
    6.9358   -6.2898   -0.6721 H   0  0  0  0  0  0  0  0  0  0  0  0
    6.9109   -6.2399    1.1018 H   0  0  0  0  0  0  0  0  0  0  0  0
    8.1556   -8.2836    1.3200 H   0  0  0  0  0  0  0  0  0  0  0  0
    8.4309  -10.1123   -0.7258 H   0  0  0  0  0  0  0  0  0  0  0  0
    6.3518  -13.0832    1.5355 H   0  0  0  0  0  0  0  0  0  0  0  0
    8.2014  -13.1284    3.2107 H   0  0  0  0  0  0  0  0  0  0  0  0
   10.1178  -11.5662    2.9704 H   0  0  0  0  0  0  0  0  0  0  0  0
   12.2438   -8.3475   -0.0300 H   0  0  0  0  0  0  0  0  0  0  0  0
   11.8583   -6.0724   -0.9805 H   0  0  0  0  0  0  0  0  0  0  0  0
    7.6017   -1.9816   -1.1632 H   0  0  0  0  0  0  0  0  0  0  0  0
    7.9011    2.0660    1.5987 H   0  0  0  0  0  0  0  0  0  0  0  0
    7.9687    1.9345    4.0621 H   0  0  0  0  0  0  0  0  0  0  0  0
  1  2  3  0  0  0  0
  2  3  1  0  0  0  0
  3  4  2  0  0  0  0
  3 29  1  0  0  0  0
  4  5  1  0  0  0  0
  4 30  1  0  0  0  0
  5  6  1  0  0  0  0
  5 27  1  0  0  0  0
  6  7  1  0  0  0  0
  6 25  2  0  0  0  0
  7  8  2  0  0  0  0
  7  9  1  0  0  0  0
  9 10  1  0  0  0  0
  9 31  1  0  0  0  0
 10 11  1  0  0  0  0
 10 32  1  0  0  0  0
 10 33  1  0  0  0  0
 11 12  2  0  0  0  0
 11 24  1  0  0  0  0
 12 13  1  0  0  0  0
 12 34  1  0  0  0  0
 13 14  1  0  0  0  0
 13 22  2  0  0  0  0
 14 15  1  0  0  0  0
 15 16  2  0  0  0  0
 15 21  1  0  0  0  0
 16 17  1  0  0  0  0
 16 35  1  0  0  0  0
 17 18  1  0  0  0  0
 17 19  2  0  0  0  0
 19 20  1  0  0  0  0
 19 36  1  0  0  0  0
 20 21  2  0  0  0  0
 20 37  1  0  0  0  0
 21 38  1  0  0  0  0
 22 23  1  0  0  0  0
 22 39  1  0  0  0  0
 23 24  2  0  0  0  0
 23 40  1  0  0  0  0
 25 26  1  0  0  0  0
 25 41  1  0  0  0  0
 26 27  2  0  0  0  0
 27 28  1  0  0  0  0
 28 29  2  0  0  0  0
 28 42  1  0  0  0  0
 29 43  1  0  0  0  0
M  END
$$$$
