
 OpenBabel01122422353D

 52 55  0  0  0  0  0  0  0  0999 V2000
   -0.7895    6.8177    5.2824 N   0  0  0  0  0  0  0  0  0  0  0  0
    0.0597    7.4300    4.7855 C   0  0  0  0  0  0  0  0  0  0  0  0
    1.1030    8.1875    4.1746 C   0  0  0  0  0  0  0  0  0  0  0  0
    2.3838    7.7698    3.8987 C   0  0  0  0  0  0  0  0  0  0  0  0
    3.0081    8.8370    3.3135 N   0  0  0  0  0  0  0  0  0  0  0  0
    4.3838    8.8967    2.8493 C   0  0  0  0  0  0  0  0  0  0  0  0
    4.4699    9.1834    1.3489 C   0  0  0  0  0  0  0  0  0  0  0  0
    5.8311    9.2513    0.8322 N   0  0  0  0  0  0  0  0  0  0  0  0
    6.6668    8.1694    0.8384 C   0  0  0  0  0  0  0  0  0  0  0  0
    6.3530    7.0739    1.2873 O   0  0  0  0  0  0  0  0  0  0  0  0
    7.8969    8.4681    0.3213 N   0  0  0  0  0  0  0  0  0  0  0  0
    8.9003    7.4267    0.2169 C   0  0  0  0  0  0  0  0  0  0  0  0
   10.2716    8.0126    0.1408 C   0  0  0  0  0  0  0  0  0  0  0  0
   10.6257    9.3494    0.1948 C   0  0  0  0  0  0  0  0  0  0  0  0
   11.9948    9.4276    0.1503 N   0  0  0  0  0  0  0  0  0  0  0  0
   12.8099   10.5925    0.2257 C   0  0  0  0  0  0  0  0  0  0  0  0
   12.2432   11.8624    0.4027 C   0  0  0  0  0  0  0  0  0  0  0  0
   13.0654   12.9863    0.5184 C   0  0  0  0  0  0  0  0  0  0  0  0
   14.4509   12.8534    0.4504 C   0  0  0  0  0  0  0  0  0  0  0  0
   15.0211   11.5971    0.2561 C   0  0  0  0  0  0  0  0  0  0  0  0
   14.2062   10.4683    0.1428 C   0  0  0  0  0  0  0  0  0  0  0  0
   12.5463    8.2028    0.0407 N   0  0  0  0  0  0  0  0  0  0  0  0
   11.5286    7.3279    0.0416 C   0  0  0  0  0  0  0  0  0  0  0  0
   11.8340    5.8916   -0.0652 C   0  0  0  0  0  0  0  0  0  0  0  0
   13.0660    5.4036    0.4142 C   0  0  0  0  0  0  0  0  0  0  0  0
   13.4294    4.0652    0.2387 C   0  0  0  0  0  0  0  0  0  0  0  0
   12.5552    3.2017   -0.4047 C   0  0  0  0  0  0  0  0  0  0  0  0
   12.9080    1.9249   -0.6005 F   0  0  0  0  0  0  0  0  0  0  0  0
   11.3251    3.6497   -0.8666 C   0  0  0  0  0  0  0  0  0  0  0  0
   10.9688    4.9925   -0.7040 C   0  0  0  0  0  0  0  0  0  0  0  0
    2.2153    9.9221    3.2055 N   0  0  0  0  0  0  0  0  0  0  0  0
    1.0496    9.5184    3.7241 C   0  0  0  0  0  0  0  0  0  0  0  0
    2.8931    6.8300    4.0710 H   0  0  0  0  0  0  0  0  0  0  0  0
    4.8566    7.9438    3.1055 H   0  0  0  0  0  0  0  0  0  0  0  0
    4.8845    9.6791    3.4307 H   0  0  0  0  0  0  0  0  0  0  0  0
    4.0019   10.1457    1.1122 H   0  0  0  0  0  0  0  0  0  0  0  0
    3.9380    8.4089    0.7836 H   0  0  0  0  0  0  0  0  0  0  0  0
    6.2069   10.1522    0.5731 H   0  0  0  0  0  0  0  0  0  0  0  0
    7.8874    9.1402   -0.4307 H   0  0  0  0  0  0  0  0  0  0  0  0
    8.6621    6.8734   -0.6953 H   0  0  0  0  0  0  0  0  0  0  0  0
    8.8235    6.7485    1.0735 H   0  0  0  0  0  0  0  0  0  0  0  0
   10.0102   10.2299    0.2867 H   0  0  0  0  0  0  0  0  0  0  0  0
   11.1714   12.0141    0.4693 H   0  0  0  0  0  0  0  0  0  0  0  0
   12.6228   13.9679    0.6697 H   0  0  0  0  0  0  0  0  0  0  0  0
   15.0867   13.7292    0.5511 H   0  0  0  0  0  0  0  0  0  0  0  0
   16.1018   11.4929    0.1990 H   0  0  0  0  0  0  0  0  0  0  0  0
   14.6752    9.4969   -0.0049 H   0  0  0  0  0  0  0  0  0  0  0  0
   13.7658    6.0763    0.9087 H   0  0  0  0  0  0  0  0  0  0  0  0
   14.3922    3.7019    0.5833 H   0  0  0  0  0  0  0  0  0  0  0  0
   10.6583    2.9594   -1.3735 H   0  0  0  0  0  0  0  0  0  0  0  0
   10.0261    5.3154   -1.1278 H   0  0  0  0  0  0  0  0  0  0  0  0
    0.2213   10.2141    3.7587 H   0  0  0  0  0  0  0  0  0  0  0  0
  1  2  3  0  0  0  0
  2  3  1  0  0  0  0
  3  4  2  0  0  0  0
  3 32  1  0  0  0  0
  4  5  1  0  0  0  0
  4 33  1  0  0  0  0
  5  6  1  0  0  0  0
  5 31  1  0  0  0  0
  6  7  1  0  0  0  0
  6 34  1  0  0  0  0
  6 35  1  0  0  0  0
  7  8  1  0  0  0  0
  7 36  1  0  0  0  0
  7 37  1  0  0  0  0
  8  9  1  0  0  0  0
  8 38  1  0  0  0  0
  9 10  2  0  0  0  0
  9 11  1  0  0  0  0
 11 12  1  0  0  0  0
 11 39  1  0  0  0  0
 12 13  1  0  0  0  0
 12 40  1  0  0  0  0
 12 41  1  0  0  0  0
 13 14  2  0  0  0  0
 13 23  1  0  0  0  0
 14 15  1  0  0  0  0
 14 42  1  0  0  0  0
 15 16  1  0  0  0  0
 15 22  1  0  0  0  0
 16 17  2  0  0  0  0
 16 21  1  0  0  0  0
 17 18  1  0  0  0  0
 17 43  1  0  0  0  0
 18 19  2  0  0  0  0
 18 44  1  0  0  0  0
 19 20  1  0  0  0  0
 19 45  1  0  0  0  0
 20 21  2  0  0  0  0
 20 46  1  0  0  0  0
 21 47  1  0  0  0  0
 22 23  2  0  0  0  0
 23 24  1  0  0  0  0
 24 25  2  0  0  0  0
 24 30  1  0  0  0  0
 25 26  1  0  0  0  0
 25 48  1  0  0  0  0
 26 27  2  0  0  0  0
 26 49  1  0  0  0  0
 27 28  1  0  0  0  0
 27 29  1  0  0  0  0
 29 30  2  0  0  0  0
 29 50  1  0  0  0  0
 30 51  1  0  0  0  0
 31 32  2  0  0  0  0
 32 52  1  0  0  0  0
M  END
$$$$
