
 OpenBabel01122422413D

 41 44  0  0  0  0  0  0  0  0999 V2000
    1.0434   -0.1103    0.1270 O   0  0  0  0  0  0  0  0  0  0  0  0
    2.2531    0.0789    0.0550 C   0  0  0  0  0  0  0  0  0  0  0  0
    2.9207    0.6486   -1.0224 N   0  0  0  0  0  0  0  0  0  0  0  0
    2.2952    1.1910   -2.1440 C   0  0  0  0  0  0  0  0  0  0  0  0
    1.0323    1.6545   -2.1031 C   0  0  0  0  0  0  0  0  0  0  0  0
    0.3317    2.2093   -3.2786 C   0  0  0  0  0  0  0  0  0  0  0  0
   -0.8165    2.6299   -3.1970 O   0  0  0  0  0  0  0  0  0  0  0  0
    1.0303    2.2307   -4.4506 N   0  0  0  0  0  0  0  0  0  0  0  0
    2.3516    1.7848   -4.5655 C   0  0  0  0  0  0  0  0  0  0  0  0
    2.9722    1.8557   -5.8118 C   0  0  0  0  0  0  0  0  0  0  0  0
    4.2712    1.4029   -5.9052 C   0  0  0  0  0  0  0  0  0  0  0  0
    4.9600    0.8985   -4.8612 N   0  0  0  0  0  0  0  0  0  0  0  0
    4.3190    0.8424   -3.6650 C   0  0  0  0  0  0  0  0  0  0  0  0
    3.0181    1.2782   -3.4390 C   0  0  0  0  0  0  0  0  0  0  0  0
    3.0696   -0.4057    1.1862 C   0  0  0  0  0  0  0  0  0  0  0  0
    2.6793   -1.5700    1.8572 C   0  0  0  0  0  0  0  0  0  0  0  0
    3.3858   -1.9904    2.9810 C   0  0  0  0  0  0  0  0  0  0  0  0
    4.4676   -1.2286    3.3887 C   0  0  0  0  0  0  0  0  0  0  0  0
    5.1707   -1.6864    4.4984 O   0  0  0  0  0  0  0  0  0  0  0  0
    6.5036   -1.3513    4.5686 C   0  0  0  0  0  0  0  0  0  0  0  0
    7.0128   -0.9916    5.8189 C   0  0  0  0  0  0  0  0  0  0  0  0
    8.3494   -0.6044    5.9343 C   0  0  0  0  0  0  0  0  0  0  0  0
    9.1617   -0.5914    4.8040 C   0  0  0  0  0  0  0  0  0  0  0  0
   10.4329   -0.1829    4.9082 F   0  0  0  0  0  0  0  0  0  0  0  0
    8.6761   -0.9959    3.5668 C   0  0  0  0  0  0  0  0  0  0  0  0
    7.3503   -1.4038    3.4541 C   0  0  0  0  0  0  0  0  0  0  0  0
    4.8531   -0.0818    2.7711 N   0  0  0  0  0  0  0  0  0  0  0  0
    4.1469    0.3061    1.6842 C   0  0  0  0  0  0  0  0  0  0  0  0
    3.9220    0.5121   -1.0612 H   0  0  0  0  0  0  0  0  0  0  0  0
    0.4309    1.6684   -1.2018 H   0  0  0  0  0  0  0  0  0  0  0  0
    0.5296    2.5977   -5.2488 H   0  0  0  0  0  0  0  0  0  0  0  0
    2.4609    2.2411   -6.6856 H   0  0  0  0  0  0  0  0  0  0  0  0
    4.8079    1.4295   -6.8498 H   0  0  0  0  0  0  0  0  0  0  0  0
    4.9286    0.4007   -2.8845 H   0  0  0  0  0  0  0  0  0  0  0  0
    1.8180   -2.1386    1.5124 H   0  0  0  0  0  0  0  0  0  0  0  0
    3.0997   -2.8877    3.5182 H   0  0  0  0  0  0  0  0  0  0  0  0
    6.3691   -0.9912    6.6943 H   0  0  0  0  0  0  0  0  0  0  0  0
    8.7591   -0.2994    6.8916 H   0  0  0  0  0  0  0  0  0  0  0  0
    9.3244   -0.9795    2.6970 H   0  0  0  0  0  0  0  0  0  0  0  0
    6.9724   -1.7196    2.4861 H   0  0  0  0  0  0  0  0  0  0  0  0
    4.4768    1.2435    1.2469 H   0  0  0  0  0  0  0  0  0  0  0  0
  1  2  2  0  0  0  0
  2  3  1  0  0  0  0
  2 15  1  0  0  0  0
  3  4  1  0  0  0  0
  3 29  1  0  0  0  0
  4  5  2  0  0  0  0
  4 14  1  0  0  0  0
  5  6  1  0  0  0  0
  5 30  1  0  0  0  0
  6  7  2  0  0  0  0
  6  8  1  0  0  0  0
  8  9  1  0  0  0  0
  8 31  1  0  0  0  0
  9 10  2  0  0  0  0
  9 14  1  0  0  0  0
 10 11  1  0  0  0  0
 10 32  1  0  0  0  0
 11 12  2  0  0  0  0
 11 33  1  0  0  0  0
 12 13  1  0  0  0  0
 13 14  2  0  0  0  0
 13 34  1  0  0  0  0
 15 16  2  0  0  0  0
 15 28  1  0  0  0  0
 16 17  1  0  0  0  0
 16 35  1  0  0  0  0
 17 18  2  0  0  0  0
 17 36  1  0  0  0  0
 18 19  1  0  0  0  0
 18 27  1  0  0  0  0
 19 20  1  0  0  0  0
 20 21  2  0  0  0  0
 20 26  1  0  0  0  0
 21 22  1  0  0  0  0
 21 37  1  0  0  0  0
 22 23  2  0  0  0  0
 22 38  1  0  0  0  0
 23 24  1  0  0  0  0
 23 25  1  0  0  0  0
 25 26  2  0  0  0  0
 25 39  1  0  0  0  0
 26 40  1  0  0  0  0
 27 28  2  0  0  0  0
 28 41  1  0  0  0  0
M  END
$$$$
