
 OpenBabel01122422413D

 50 53  0  0  1  0  0  0  0  0999 V2000
    0.9768    0.0699   -0.0347 C   0  0  0  0  0  0  0  0  0  0  0  0
    2.5043   -0.0143    0.0275 C   0  0  3  0  0  0  0  0  0  0  0  0
    2.9945   -0.2207    1.3812 N   0  0  0  0  0  0  0  0  0  0  0  0
    2.8410    0.7448    2.3507 C   0  0  0  0  0  0  0  0  0  0  0  0
    2.2950    1.8237    2.1475 O   0  0  0  0  0  0  0  0  0  0  0  0
    3.3619    0.4330    3.7071 C   0  0  0  0  0  0  0  0  0  0  0  0
    4.5149   -0.3333    3.9003 C   0  0  0  0  0  0  0  0  0  0  0  0
    5.0324   -0.4951    5.1875 C   0  0  0  0  0  0  0  0  0  0  0  0
    4.4147    0.1204    6.2795 C   0  0  0  0  0  0  0  0  0  0  0  0
    3.2574    0.8903    6.1001 C   0  0  0  0  0  0  0  0  0  0  0  0
    2.6557    1.6591    7.2588 C   0  0  0  0  0  0  0  0  0  0  0  0
    3.2658    3.0350    7.4370 C   0  0  0  0  0  0  0  0  0  0  0  0
    3.1294    4.0066    6.4437 C   0  0  0  0  0  0  0  0  0  0  0  0
    3.7564    5.2376    6.6068 C   0  0  0  0  0  0  0  0  0  0  0  0
    4.4842    5.4795    7.7629 C   0  0  0  0  0  0  0  0  0  0  0  0
    4.5492    4.4761    8.7147 C   0  0  0  0  0  0  0  0  0  0  0  0
    3.9625    3.2649    8.5790 N   0  0  0  0  0  0  0  0  0  0  0  0
    2.7283    1.0249    4.8076 C   0  0  0  0  0  0  0  0  0  0  0  0
    2.9825   -1.1313   -0.8463 C   0  0  0  0  0  0  0  0  0  0  0  0
    3.3718   -1.1012   -2.1689 C   0  0  0  0  0  0  0  0  0  0  0  0
    3.5183   -2.4217   -2.5284 N   0  0  0  0  0  0  0  0  0  0  0  0
    3.7939   -2.9708   -3.8092 C   0  0  0  0  0  0  0  0  0  0  0  0
    4.0459   -2.1397   -4.9125 C   0  0  0  0  0  0  0  0  0  0  0  0
    4.3064   -2.7042   -6.1653 C   0  0  0  0  0  0  0  0  0  0  0  0
    4.3104   -4.0861   -6.3143 C   0  0  0  0  0  0  0  0  0  0  0  0
    4.5606   -4.6187   -7.5177 F   0  0  0  0  0  0  0  0  0  0  0  0
    4.0516   -4.9210   -5.2351 C   0  0  0  0  0  0  0  0  0  0  0  0
    3.7946   -4.3665   -3.9782 C   0  0  0  0  0  0  0  0  0  0  0  0
    3.3159   -3.2046   -1.4394 N   0  0  0  0  0  0  0  0  0  0  0  0
    2.9823   -2.4308   -0.4160 N   0  0  0  0  0  0  0  0  0  0  0  0
    0.5915    0.9210    0.5339 H   0  0  0  0  0  0  0  0  0  0  0  0
    0.5128   -0.8367    0.3702 H   0  0  0  0  0  0  0  0  0  0  0  0
    0.6367    0.1858   -1.0703 H   0  0  0  0  0  0  0  0  0  0  0  0
    2.9265    0.9340   -0.3287 H   0  0  0  0  0  0  0  0  0  0  0  0
    3.3030   -1.1528    1.6307 H   0  0  0  0  0  0  0  0  0  0  0  0
    5.0496   -0.7649    3.0595 H   0  0  0  0  0  0  0  0  0  0  0  0
    5.9435   -1.0689    5.3399 H   0  0  0  0  0  0  0  0  0  0  0  0
    4.8582    0.0256    7.2689 H   0  0  0  0  0  0  0  0  0  0  0  0
    2.7831    1.0779    8.1818 H   0  0  0  0  0  0  0  0  0  0  0  0
    1.5712    1.7602    7.1232 H   0  0  0  0  0  0  0  0  0  0  0  0
    2.5627    3.8106    5.5394 H   0  0  0  0  0  0  0  0  0  0  0  0
    3.6828    5.9936    5.8305 H   0  0  0  0  0  0  0  0  0  0  0  0
    4.9898    6.4258    7.9169 H   0  0  0  0  0  0  0  0  0  0  0  0
    5.0976    4.6225    9.6407 H   0  0  0  0  0  0  0  0  0  0  0  0
    1.8377    1.6306    4.6449 H   0  0  0  0  0  0  0  0  0  0  0  0
    3.4745   -0.2832   -2.8634 H   0  0  0  0  0  0  0  0  0  0  0  0
    4.0536   -1.0565   -4.8337 H   0  0  0  0  0  0  0  0  0  0  0  0
    4.5086   -2.0731   -7.0251 H   0  0  0  0  0  0  0  0  0  0  0  0
    4.0490   -5.9975   -5.3763 H   0  0  0  0  0  0  0  0  0  0  0  0
    3.5854   -5.0378   -3.1462 H   0  0  0  0  0  0  0  0  0  0  0  0
  1  2  1  0  0  0  0
  1 31  1  0  0  0  0
  1 32  1  0  0  0  0
  1 33  1  0  0  0  0
  2  3  1  0  0  0  0
  2 19  1  0  0  0  0
  2 34  1  0  0  0  0
  3  4  1  0  0  0  0
  3 35  1  0  0  0  0
  4  5  2  0  0  0  0
  4  6  1  0  0  0  0
  6  7  2  0  0  0  0
  6 18  1  0  0  0  0
  7  8  1  0  0  0  0
  7 36  1  0  0  0  0
  8  9  2  0  0  0  0
  8 37  1  0  0  0  0
  9 10  1  0  0  0  0
  9 38  1  0  0  0  0
 10 11  1  0  0  0  0
 10 18  2  0  0  0  0
 11 12  1  0  0  0  0
 11 39  1  0  0  0  0
 11 40  1  0  0  0  0
 12 13  2  0  0  0  0
 12 17  1  0  0  0  0
 13 14  1  0  0  0  0
 13 41  1  0  0  0  0
 14 15  2  0  0  0  0
 14 42  1  0  0  0  0
 15 16  1  0  0  0  0
 15 43  1  0  0  0  0
 16 17  2  0  0  0  0
 16 44  1  0  0  0  0
 18 45  1  0  0  0  0
 19 20  2  0  0  0  0
 19 30  1  0  0  0  0
 20 21  1  0  0  0  0
 20 46  1  0  0  0  0
 21 22  1  0  0  0  0
 21 29  1  0  0  0  0
 22 23  2  0  0  0  0
 22 28  1  0  0  0  0
 23 24  1  0  0  0  0
 23 47  1  0  0  0  0
 24 25  2  0  0  0  0
 24 48  1  0  0  0  0
 25 26  1  0  0  0  0
 25 27  1  0  0  0  0
 27 28  2  0  0  0  0
 27 49  1  0  0  0  0
 28 50  1  0  0  0  0
 29 30  2  0  0  0  0
M  END
$$$$
