
 OpenBabel01122422413D

 46 49  0  0  0  0  0  0  0  0999 V2000
    4.4745    3.3027    0.7174 C   0  0  0  0  0  0  0  0  0  0  0  0
    4.0388    1.9479    0.7479 O   0  0  0  0  0  0  0  0  0  0  0  0
    4.7907    1.0698    1.4777 C   0  0  0  0  0  0  0  0  0  0  0  0
    4.3483   -0.2534    1.4224 C   0  0  0  0  0  0  0  0  0  0  0  0
    5.0347   -1.2726    2.1087 C   0  0  0  0  0  0  0  0  0  0  0  0
    4.6134   -2.6071    2.0451 C   0  0  0  0  0  0  0  0  0  0  0  0
    5.3211   -3.5851    2.7341 C   0  0  0  0  0  0  0  0  0  0  0  0
    6.4274   -3.1940    3.4722 C   0  0  0  0  0  0  0  0  0  0  0  0
    7.1967   -4.2257    4.2444 C   0  0  0  0  0  0  0  0  0  0  0  0
    6.8700   -5.4061    4.2333 O   0  0  0  0  0  0  0  0  0  0  0  0
    8.2668   -3.7464    4.9686 N   0  0  0  0  0  0  0  0  0  0  0  0
    9.0899   -4.6028    5.8041 C   0  0  0  0  0  0  0  0  0  0  0  0
    8.5990   -4.7230    7.2266 C   0  0  0  0  0  0  0  0  0  0  0  0
    7.3706   -5.3008    7.5294 C   0  0  0  0  0  0  0  0  0  0  0  0
    6.8715   -5.3780    8.7921 N   0  0  0  0  0  0  0  0  0  0  0  0
    7.6430   -4.8611    9.7826 C   0  0  0  0  0  0  0  0  0  0  0  0
    7.0502   -4.8190   11.1364 C   0  0  0  0  0  0  0  0  0  0  0  0
    6.0715   -5.7497   11.5352 C   0  0  0  0  0  0  0  0  0  0  0  0
    5.4681   -5.6819   12.7969 C   0  0  0  0  0  0  0  0  0  0  0  0
    5.8277   -4.6772   13.6902 C   0  0  0  0  0  0  0  0  0  0  0  0
    6.7925   -3.7446   13.3254 C   0  0  0  0  0  0  0  0  0  0  0  0
    7.3936   -3.8157   12.0642 C   0  0  0  0  0  0  0  0  0  0  0  0
    8.9032   -4.3479    9.4777 C   0  0  0  0  0  0  0  0  0  0  0  0
    9.4021   -4.2553    8.2162 N   0  0  0  0  0  0  0  0  0  0  0  0
    6.8686   -1.9079    3.5579 N   0  0  0  0  0  0  0  0  0  0  0  0
    6.1781   -0.9703    2.8817 C   0  0  0  0  0  0  0  0  0  0  0  0
    6.5960    0.3484    2.9349 C   0  0  0  0  0  0  0  0  0  0  0  0
    5.9198    1.3546    2.2432 C   0  0  0  0  0  0  0  0  0  0  0  0
    6.4013    2.6017    2.3445 F   0  0  0  0  0  0  0  0  0  0  0  0
    3.8048    3.8543    0.0506 H   0  0  0  0  0  0  0  0  0  0  0  0
    5.4864    3.3859    0.3072 H   0  0  0  0  0  0  0  0  0  0  0  0
    4.4036    3.7590    1.7100 H   0  0  0  0  0  0  0  0  0  0  0  0
    3.4636   -0.4868    0.8323 H   0  0  0  0  0  0  0  0  0  0  0  0
    3.7401   -2.8908    1.4622 H   0  0  0  0  0  0  0  0  0  0  0  0
    5.0137   -4.6260    2.6964 H   0  0  0  0  0  0  0  0  0  0  0  0
    8.4527   -2.7499    4.9250 H   0  0  0  0  0  0  0  0  0  0  0  0
   10.0928   -4.1614    5.8026 H   0  0  0  0  0  0  0  0  0  0  0  0
    9.1655   -5.5992    5.3557 H   0  0  0  0  0  0  0  0  0  0  0  0
    6.7302   -5.7158    6.7578 H   0  0  0  0  0  0  0  0  0  0  0  0
    5.7613   -6.5371   10.8489 H   0  0  0  0  0  0  0  0  0  0  0  0
    4.7087   -6.4087   13.0737 H   0  0  0  0  0  0  0  0  0  0  0  0
    5.3502   -4.6149   14.6645 H   0  0  0  0  0  0  0  0  0  0  0  0
    7.0692   -2.9501   14.0136 H   0  0  0  0  0  0  0  0  0  0  0  0
    8.1173   -3.0448   11.8082 H   0  0  0  0  0  0  0  0  0  0  0  0
    9.5691   -3.9786   10.2501 H   0  0  0  0  0  0  0  0  0  0  0  0
    7.4706    0.6138    3.5205 H   0  0  0  0  0  0  0  0  0  0  0  0
  1  2  1  0  0  0  0
  1 30  1  0  0  0  0
  1 31  1  0  0  0  0
  1 32  1  0  0  0  0
  2  3  1  0  0  0  0
  3  4  2  0  0  0  0
  3 28  1  0  0  0  0
  4  5  1  0  0  0  0
  4 33  1  0  0  0  0
  5  6  2  0  0  0  0
  5 26  1  0  0  0  0
  6  7  1  0  0  0  0
  6 34  1  0  0  0  0
  7  8  2  0  0  0  0
  7 35  1  0  0  0  0
  8  9  1  0  0  0  0
  8 25  1  0  0  0  0
  9 10  2  0  0  0  0
  9 11  1  0  0  0  0
 11 12  1  0  0  0  0
 11 36  1  0  0  0  0
 12 13  1  0  0  0  0
 12 37  1  0  0  0  0
 12 38  1  0  0  0  0
 13 14  2  0  0  0  0
 13 24  1  0  0  0  0
 14 15  1  0  0  0  0
 14 39  1  0  0  0  0
 15 16  2  0  0  0  0
 16 17  1  0  0  0  0
 16 23  1  0  0  0  0
 17 18  2  0  0  0  0
 17 22  1  0  0  0  0
 18 19  1  0  0  0  0
 18 40  1  0  0  0  0
 19 20  2  0  0  0  0
 19 41  1  0  0  0  0
 20 21  1  0  0  0  0
 20 42  1  0  0  0  0
 21 22  2  0  0  0  0
 21 43  1  0  0  0  0
 22 44  1  0  0  0  0
 23 24  2  0  0  0  0
 23 45  1  0  0  0  0
 25 26  2  0  0  0  0
 26 27  1  0  0  0  0
 27 28  2  0  0  0  0
 27 46  1  0  0  0  0
 28 29  1  0  0  0  0
M  END
$$$$
