
 OpenBabel01122422413D

 51 54  0  0  0  0  0  0  0  0999 V2000
    1.2485   -0.3640    4.4479 C   0  0  0  0  0  0  0  0  0  0  0  0
    1.9195   -0.4107    3.1720 N   0  0  0  0  0  0  0  0  0  0  0  0
    1.7134   -1.3069    2.1640 C   0  0  0  0  0  0  0  0  0  0  0  0
    2.5463   -0.9274    1.1288 C   0  0  0  0  0  0  0  0  0  0  0  0
    2.7035   -1.5159   -0.2316 C   0  0  0  0  0  0  0  0  0  0  0  0
    2.4366   -2.9403   -0.4121 N   0  0  0  0  0  0  0  0  0  0  0  0
    3.4491   -3.8828   -0.2485 C   0  0  0  0  0  0  0  0  0  0  0  0
    4.5703   -3.7059    0.5677 C   0  0  0  0  0  0  0  0  0  0  0  0
    5.5534   -4.6989    0.6586 C   0  0  0  0  0  0  0  0  0  0  0  0
    5.4298   -5.8803   -0.0793 C   0  0  0  0  0  0  0  0  0  0  0  0
    6.4802   -6.9220    0.0379 C   0  0  0  0  0  0  0  0  0  0  0  0
    7.0132   -7.0873    1.1321 O   0  0  0  0  0  0  0  0  0  0  0  0
    6.8081   -7.5835   -1.1324 N   0  0  0  0  0  0  0  0  0  0  0  0
    7.6828   -8.6507   -1.2481 C   0  0  0  0  0  0  0  0  0  0  0  0
    8.0558   -9.4396   -0.2287 C   0  0  0  0  0  0  0  0  0  0  0  0
    9.0028  -10.5007   -0.4075 C   0  0  0  0  0  0  0  0  0  0  0  0
    9.5965  -10.6708   -1.5902 C   0  0  0  0  0  0  0  0  0  0  0  0
    9.2802   -9.8911   -2.6973 N   0  0  0  0  0  0  0  0  0  0  0  0
   10.0355  -10.0482   -3.9019 C   0  0  0  0  0  0  0  0  0  0  0  0
   11.4386  -10.0861   -3.8333 C   0  0  0  0  0  0  0  0  0  0  0  0
   12.2064  -10.2438   -4.9873 C   0  0  0  0  0  0  0  0  0  0  0  0
   11.5783  -10.4034   -6.2189 C   0  0  0  0  0  0  0  0  0  0  0  0
   10.1854  -10.3847   -6.2979 C   0  0  0  0  0  0  0  0  0  0  0  0
    9.4149  -10.1883   -5.1468 C   0  0  0  0  0  0  0  0  0  0  0  0
    8.2656   -8.9121   -2.6313 C   0  0  0  0  0  0  0  0  0  0  0  0
    7.8667   -8.2080   -3.5633 O   0  0  0  0  0  0  0  0  0  0  0  0
    4.2904   -6.0962   -0.8544 C   0  0  0  0  0  0  0  0  0  0  0  0
    3.3042   -5.1080   -0.9170 C   0  0  0  0  0  0  0  0  0  0  0  0
    3.2145    0.2134    1.6333 C   0  0  0  0  0  0  0  0  0  0  0  0
    2.8347    0.5279    2.8726 N   0  0  0  0  0  0  0  0  0  0  0  0
    0.5842   -1.2260    4.5408 H   0  0  0  0  0  0  0  0  0  0  0  0
    0.6685    0.5619    4.4965 H   0  0  0  0  0  0  0  0  0  0  0  0
    2.0038   -0.3862    5.2369 H   0  0  0  0  0  0  0  0  0  0  0  0
    1.0029   -2.1155    2.2587 H   0  0  0  0  0  0  0  0  0  0  0  0
    3.6943   -1.2675   -0.6347 H   0  0  0  0  0  0  0  0  0  0  0  0
    1.9932   -0.9886   -0.8819 H   0  0  0  0  0  0  0  0  0  0  0  0
    1.5726   -3.2350    0.0342 H   0  0  0  0  0  0  0  0  0  0  0  0
    4.6991   -2.8041    1.1598 H   0  0  0  0  0  0  0  0  0  0  0  0
    6.4147   -4.5469    1.3065 H   0  0  0  0  0  0  0  0  0  0  0  0
    6.5444   -7.1570   -2.0192 H   0  0  0  0  0  0  0  0  0  0  0  0
    7.6617   -9.3074    0.7732 H   0  0  0  0  0  0  0  0  0  0  0  0
    9.2367  -11.1341    0.4413 H   0  0  0  0  0  0  0  0  0  0  0  0
   10.3245  -11.4647   -1.7332 H   0  0  0  0  0  0  0  0  0  0  0  0
   11.9470   -9.9377   -2.8836 H   0  0  0  0  0  0  0  0  0  0  0  0
   13.2912  -10.2319   -4.9230 H   0  0  0  0  0  0  0  0  0  0  0  0
   12.1739  -10.5361   -7.1185 H   0  0  0  0  0  0  0  0  0  0  0  0
    9.6969  -10.5225   -7.2592 H   0  0  0  0  0  0  0  0  0  0  0  0
    8.3311  -10.1866   -5.2292 H   0  0  0  0  0  0  0  0  0  0  0  0
    4.1438   -7.0291   -1.3912 H   0  0  0  0  0  0  0  0  0  0  0  0
    2.4197   -5.2825   -1.5262 H   0  0  0  0  0  0  0  0  0  0  0  0
    3.9559    0.8317    1.1423 H   0  0  0  0  0  0  0  0  0  0  0  0
  1  2  1  0  0  0  0
  1 31  1  0  0  0  0
  1 32  1  0  0  0  0
  1 33  1  0  0  0  0
  2  3  1  0  0  0  0
  2 30  1  0  0  0  0
  3  4  2  0  0  0  0
  3 34  1  0  0  0  0
  4  5  1  0  0  0  0
  4 29  1  0  0  0  0
  5  6  1  0  0  0  0
  5 35  1  0  0  0  0
  5 36  1  0  0  0  0
  6  7  1  0  0  0  0
  6 37  1  0  0  0  0
  7  8  2  0  0  0  0
  7 28  1  0  0  0  0
  8  9  1  0  0  0  0
  8 38  1  0  0  0  0
  9 10  2  0  0  0  0
  9 39  1  0  0  0  0
 10 11  1  0  0  0  0
 10 27  1  0  0  0  0
 11 12  2  0  0  0  0
 11 13  1  0  0  0  0
 13 14  1  0  0  0  0
 13 40  1  0  0  0  0
 14 15  2  0  0  0  0
 14 25  1  0  0  0  0
 15 16  1  0  0  0  0
 15 41  1  0  0  0  0
 16 17  2  0  0  0  0
 16 42  1  0  0  0  0
 17 18  1  0  0  0  0
 17 43  1  0  0  0  0
 18 19  1  0  0  0  0
 18 25  1  0  0  0  0
 19 20  2  0  0  0  0
 19 24  1  0  0  0  0
 20 21  1  0  0  0  0
 20 44  1  0  0  0  0
 21 22  2  0  0  0  0
 21 45  1  0  0  0  0
 22 23  1  0  0  0  0
 22 46  1  0  0  0  0
 23 24  2  0  0  0  0
 23 47  1  0  0  0  0
 24 48  1  0  0  0  0
 25 26  2  0  0  0  0
 27 28  2  0  0  0  0
 27 49  1  0  0  0  0
 28 50  1  0  0  0  0
 29 30  2  0  0  0  0
 29 51  1  0  0  0  0
M  END
$$$$
