
 OpenBabel01122422413D

 53 56  0  0  1  0  0  0  0  0999 V2000
    1.6597    0.5470   -0.9120 C   0  0  0  0  0  0  0  0  0  0  0  0
    2.5118   -0.2013   -0.0525 O   0  0  0  0  0  0  0  0  0  0  0  0
    3.1390    0.4992    0.9393 C   0  0  0  0  0  0  0  0  0  0  0  0
    3.0282    1.8681    1.1618 C   0  0  0  0  0  0  0  0  0  0  0  0
    3.7134    2.4708    2.2236 C   0  0  0  0  0  0  0  0  0  0  0  0
    4.5462    1.7306    3.0840 C   0  0  0  0  0  0  0  0  0  0  0  0
    5.2739    2.3963    4.1902 C   0  0  0  0  0  0  0  0  0  0  0  0
    5.7281    3.7234    4.0664 C   0  0  0  0  0  0  0  0  0  0  0  0
    6.4081    4.3660    5.1059 C   0  0  0  0  0  0  0  0  0  0  0  0
    6.6776    3.6930    6.3033 C   0  0  0  0  0  0  0  0  0  0  0  0
    7.4212    4.4215    7.3623 C   0  0  0  0  0  0  0  0  0  0  0  0
    7.8146    5.5654    7.1402 O   0  0  0  0  0  0  0  0  0  0  0  0
    7.6361    3.7854    8.5637 N   0  0  0  0  0  0  0  0  0  0  0  0
    8.4195    4.4177    9.6286 C   0  0  3  0  0  0  0  0  0  0  0  0
    7.7367    5.6462   10.2107 C   0  0  0  0  0  0  0  0  0  0  0  0
    6.5392    5.2165   11.0271 C   0  0  0  0  0  0  0  0  0  0  0  0
    7.0080    4.3428   12.1735 C   0  0  0  0  0  0  0  0  0  0  0  0
    7.8902    3.2301   11.7951 N   0  0  0  0  0  0  0  0  0  0  0  0
    8.0137    2.1403   12.7478 C   0  0  0  0  0  0  0  0  0  0  0  0
    8.6849    0.9476   12.4568 C   0  0  0  0  0  0  0  0  0  0  0  0
    8.7614   -0.0858   13.3953 C   0  0  0  0  0  0  0  0  0  0  0  0
    8.1457    0.0839   14.6195 C   0  0  0  0  0  0  0  0  0  0  0  0
    7.4785    1.2010   14.9584 N   0  0  0  0  0  0  0  0  0  0  0  0
    7.4352    2.1885   14.0243 C   0  0  0  0  0  0  0  0  0  0  0  0
    8.7713    3.3616   10.7006 C   0  0  0  0  0  0  0  0  0  0  0  0
    9.7253    2.6122   10.4729 O   0  0  0  0  0  0  0  0  0  0  0  0
    6.2311    2.3828    6.4390 C   0  0  0  0  0  0  0  0  0  0  0  0
    6.4527    1.6906    7.5697 F   0  0  0  0  0  0  0  0  0  0  0  0
    5.5360    1.7454    5.4075 C   0  0  0  0  0  0  0  0  0  0  0  0
    4.6433    0.3528    2.8270 C   0  0  0  0  0  0  0  0  0  0  0  0
    5.4279   -0.4300    3.5841 F   0  0  0  0  0  0  0  0  0  0  0  0
    3.9508   -0.2571    1.7801 C   0  0  0  0  0  0  0  0  0  0  0  0
    1.2119   -0.1453   -1.6303 H   0  0  0  0  0  0  0  0  0  0  0  0
    2.2299    1.2929   -1.4757 H   0  0  0  0  0  0  0  0  0  0  0  0
    0.8452    1.0161   -0.3488 H   0  0  0  0  0  0  0  0  0  0  0  0
    2.4137    2.5049    0.5329 H   0  0  0  0  0  0  0  0  0  0  0  0
    3.5733    3.5393    2.3685 H   0  0  0  0  0  0  0  0  0  0  0  0
    5.5722    4.2834    3.1461 H   0  0  0  0  0  0  0  0  0  0  0  0
    6.7322    5.3970    4.9685 H   0  0  0  0  0  0  0  0  0  0  0  0
    7.4474    2.7886    8.6335 H   0  0  0  0  0  0  0  0  0  0  0  0
    9.3654    4.7411    9.1751 H   0  0  0  0  0  0  0  0  0  0  0  0
    7.4124    6.3433    9.4326 H   0  0  0  0  0  0  0  0  0  0  0  0
    8.4432    6.1897   10.8491 H   0  0  0  0  0  0  0  0  0  0  0  0
    5.8215    4.6691   10.4046 H   0  0  0  0  0  0  0  0  0  0  0  0
    6.0175    6.0947   11.4211 H   0  0  0  0  0  0  0  0  0  0  0  0
    6.1039    3.9514   12.6520 H   0  0  0  0  0  0  0  0  0  0  0  0
    7.5565    4.9561   12.9004 H   0  0  0  0  0  0  0  0  0  0  0  0
    9.1514    0.7665   11.4944 H   0  0  0  0  0  0  0  0  0  0  0  0
    9.2886   -1.0043   13.1630 H   0  0  0  0  0  0  0  0  0  0  0  0
    8.1717   -0.6941   15.3760 H   0  0  0  0  0  0  0  0  0  0  0  0
    6.9003    3.0593   14.3884 H   0  0  0  0  0  0  0  0  0  0  0  0
    5.2038    0.7246    5.5821 H   0  0  0  0  0  0  0  0  0  0  0  0
    4.0562   -1.3267    1.6273 H   0  0  0  0  0  0  0  0  0  0  0  0
  1  2  1  0  0  0  0
  1 33  1  0  0  0  0
  1 34  1  0  0  0  0
  1 35  1  0  0  0  0
  2  3  1  0  0  0  0
  3  4  2  0  0  0  0
  3 32  1  0  0  0  0
  4  5  1  0  0  0  0
  4 36  1  0  0  0  0
  5  6  2  0  0  0  0
  5 37  1  0  0  0  0
  6  7  1  0  0  0  0
  6 30  1  0  0  0  0
  7  8  2  0  0  0  0
  7 29  1  0  0  0  0
  8  9  1  0  0  0  0
  8 38  1  0  0  0  0
  9 10  2  0  0  0  0
  9 39  1  0  0  0  0
 10 11  1  0  0  0  0
 10 27  1  0  0  0  0
 11 12  2  0  0  0  0
 11 13  1  0  0  0  0
 13 14  1  0  0  0  0
 13 40  1  0  0  0  0
 14 15  1  0  0  0  0
 14 25  1  0  0  0  0
 14 41  1  0  0  0  0
 15 16  1  0  0  0  0
 15 42  1  0  0  0  0
 15 43  1  0  0  0  0
 16 17  1  0  0  0  0
 16 44  1  0  0  0  0
 16 45  1  0  0  0  0
 17 18  1  0  0  0  0
 17 46  1  0  0  0  0
 17 47  1  0  0  0  0
 18 19  1  0  0  0  0
 18 25  1  0  0  0  0
 19 20  2  0  0  0  0
 19 24  1  0  0  0  0
 20 21  1  0  0  0  0
 20 48  1  0  0  0  0
 21 22  2  0  0  0  0
 21 49  1  0  0  0  0
 22 23  1  0  0  0  0
 22 50  1  0  0  0  0
 23 24  2  0  0  0  0
 24 51  1  0  0  0  0
 25 26  2  0  0  0  0
 27 28  1  0  0  0  0
 27 29  2  0  0  0  0
 29 52  1  0  0  0  0
 30 31  1  0  0  0  0
 30 32  2  0  0  0  0
 32 53  1  0  0  0  0
M  END
$$$$
