
 OpenBabel01122422413D

 46 49  0  0  0  0  0  0  0  0999 V2000
   -0.8873    5.6400   -1.5130 C   0  0  0  0  0  0  0  0  0  0  0  0
   -1.6627    4.3878   -1.2296 C   0  0  0  0  0  0  0  0  0  0  0  0
   -1.4417    3.2261   -1.9764 C   0  0  0  0  0  0  0  0  0  0  0  0
   -2.1449    2.0507   -1.6921 C   0  0  0  0  0  0  0  0  0  0  0  0
   -3.0863    2.0236   -0.6540 C   0  0  0  0  0  0  0  0  0  0  0  0
   -3.8039    0.8324   -0.3450 N   0  0  0  0  0  0  0  0  0  0  0  0
   -3.6534   -0.4125   -0.9183 C   0  0  0  0  0  0  0  0  0  0  0  0
   -4.5869   -1.2389   -0.3451 C   0  0  0  0  0  0  0  0  0  0  0  0
   -5.2783   -0.4250    0.5780 C   0  0  0  0  0  0  0  0  0  0  0  0
   -6.4516   -0.8121    1.4218 C   0  0  0  0  0  0  0  0  0  0  0  0
   -6.0191   -1.4560    2.6416 N   0  0  0  0  0  0  0  0  0  0  0  0
   -5.8214   -2.8130    2.6957 C   0  0  0  0  0  0  0  0  0  0  0  0
   -5.9997   -3.5475    1.7270 O   0  0  0  0  0  0  0  0  0  0  0  0
   -5.3898   -3.3492    4.0004 C   0  0  0  0  0  0  0  0  0  0  0  0
   -5.2096   -2.6147    5.1192 N   0  0  0  0  0  0  0  0  0  0  0  0
   -4.8241   -3.5192    6.0781 N   0  0  0  0  0  0  0  0  0  0  0  0
   -4.5365   -3.1106    7.4132 C   0  0  0  0  0  0  0  0  0  0  0  0
   -4.7030   -1.7673    7.7852 C   0  0  0  0  0  0  0  0  0  0  0  0
   -4.4267   -1.3700    9.0951 C   0  0  0  0  0  0  0  0  0  0  0  0
   -4.5931   -0.0876    9.4434 F   0  0  0  0  0  0  0  0  0  0  0  0
   -3.9833   -2.2777   10.0508 C   0  0  0  0  0  0  0  0  0  0  0  0
   -3.8130   -3.6101    9.6911 C   0  0  0  0  0  0  0  0  0  0  0  0
   -4.0883   -4.0195    8.3843 C   0  0  0  0  0  0  0  0  0  0  0  0
   -3.8902   -5.3160    8.1146 F   0  0  0  0  0  0  0  0  0  0  0  0
   -4.7780   -4.7934    5.5609 C   0  0  0  0  0  0  0  0  0  0  0  0
   -5.1297   -4.7162    4.2413 C   0  0  0  0  0  0  0  0  0  0  0  0
   -4.7846    0.8207    0.6017 N   0  0  0  0  0  0  0  0  0  0  0  0
   -3.3165    3.1908    0.0899 C   0  0  0  0  0  0  0  0  0  0  0  0
   -2.6064    4.3606   -0.1963 C   0  0  0  0  0  0  0  0  0  0  0  0
   -0.2590    5.5289   -2.4038 H   0  0  0  0  0  0  0  0  0  0  0  0
   -0.2336    5.8753   -0.6673 H   0  0  0  0  0  0  0  0  0  0  0  0
   -1.5679    6.4784   -1.6895 H   0  0  0  0  0  0  0  0  0  0  0  0
   -0.7173    3.2248   -2.7886 H   0  0  0  0  0  0  0  0  0  0  0  0
   -1.9386    1.1825   -2.3093 H   0  0  0  0  0  0  0  0  0  0  0  0
   -2.9131   -0.6132   -1.6759 H   0  0  0  0  0  0  0  0  0  0  0  0
   -4.7597   -2.2834   -0.5685 H   0  0  0  0  0  0  0  0  0  0  0  0
   -7.1012   -1.4910    0.8557 H   0  0  0  0  0  0  0  0  0  0  0  0
   -7.0465    0.0649    1.6953 H   0  0  0  0  0  0  0  0  0  0  0  0
   -5.7610   -0.9034    3.4503 H   0  0  0  0  0  0  0  0  0  0  0  0
   -5.0497   -1.0163    7.0808 H   0  0  0  0  0  0  0  0  0  0  0  0
   -3.7734   -1.9445   11.0629 H   0  0  0  0  0  0  0  0  0  0  0  0
   -3.4651   -4.3410   10.4162 H   0  0  0  0  0  0  0  0  0  0  0  0
   -4.5135   -5.6576    6.1474 H   0  0  0  0  0  0  0  0  0  0  0  0
   -5.2027   -5.5304    3.5330 H   0  0  0  0  0  0  0  0  0  0  0  0
   -4.0429    3.2014    0.9002 H   0  0  0  0  0  0  0  0  0  0  0  0
   -2.7918    5.2527    0.3988 H   0  0  0  0  0  0  0  0  0  0  0  0
  1  2  1  0  0  0  0
  1 30  1  0  0  0  0
  1 31  1  0  0  0  0
  1 32  1  0  0  0  0
  2  3  2  0  0  0  0
  2 29  1  0  0  0  0
  3  4  1  0  0  0  0
  3 33  1  0  0  0  0
  4  5  2  0  0  0  0
  4 34  1  0  0  0  0
  5  6  1  0  0  0  0
  5 28  1  0  0  0  0
  6  7  1  0  0  0  0
  6 27  1  0  0  0  0
  7  8  2  0  0  0  0
  7 35  1  0  0  0  0
  8  9  1  0  0  0  0
  8 36  1  0  0  0  0
  9 10  1  0  0  0  0
  9 27  2  0  0  0  0
 10 11  1  0  0  0  0
 10 37  1  0  0  0  0
 10 38  1  0  0  0  0
 11 12  1  0  0  0  0
 11 39  1  0  0  0  0
 12 13  2  0  0  0  0
 12 14  1  0  0  0  0
 14 15  2  0  0  0  0
 14 26  1  0  0  0  0
 15 16  1  0  0  0  0
 16 17  1  0  0  0  0
 16 25  1  0  0  0  0
 17 18  2  0  0  0  0
 17 23  1  0  0  0  0
 18 19  1  0  0  0  0
 18 40  1  0  0  0  0
 19 20  1  0  0  0  0
 19 21  2  0  0  0  0
 21 22  1  0  0  0  0
 21 41  1  0  0  0  0
 22 23  2  0  0  0  0
 22 42  1  0  0  0  0
 23 24  1  0  0  0  0
 25 26  2  0  0  0  0
 25 43  1  0  0  0  0
 26 44  1  0  0  0  0
 28 29  2  0  0  0  0
 28 45  1  0  0  0  0
 29 46  1  0  0  0  0
M  END
$$$$
