
 OpenBabel01122422413D

 49 51  0  0  0  0  0  0  0  0999 V2000
    0.9389   -2.7338   -4.7581 C   0  0  0  0  0  0  0  0  0  0  0  0
    2.1986   -2.0792   -4.8787 O   0  0  0  0  0  0  0  0  0  0  0  0
    3.2554   -2.5836   -4.1779 C   0  0  0  0  0  0  0  0  0  0  0  0
    3.1475   -3.6397   -3.2644 C   0  0  0  0  0  0  0  0  0  0  0  0
    4.2760   -4.1518   -2.6251 C   0  0  0  0  0  0  0  0  0  0  0  0
    5.5346   -3.6246   -2.8887 C   0  0  0  0  0  0  0  0  0  0  0  0
    5.6603   -2.5636   -3.7781 C   0  0  0  0  0  0  0  0  0  0  0  0
    4.5261   -2.0257   -4.4094 C   0  0  0  0  0  0  0  0  0  0  0  0
    4.7789   -0.8792   -5.3252 C   0  0  0  0  0  0  0  0  0  0  0  0
    5.8627   -0.8159   -5.9093 O   0  0  0  0  0  0  0  0  0  0  0  0
    3.7410    0.2124   -5.5029 C   0  0  0  0  0  0  0  0  0  0  0  0
    3.4918    0.9703   -4.2805 N   0  0  0  0  0  0  0  0  0  0  0  0
    3.5805    2.3285   -4.1226 C   0  0  0  0  0  0  0  0  0  0  0  0
    3.2797    2.8199   -3.0324 O   0  0  0  0  0  0  0  0  0  0  0  0
    4.0663    3.1785   -5.2889 C   0  0  0  0  0  0  0  0  0  0  0  0
    2.7532    3.2619   -6.5511 S   0  0  0  0  0  0  0  0  0  0  0  0
    3.6368    3.8179   -7.9416 C   0  0  0  0  0  0  0  0  0  0  0  0
    4.8233    4.3809   -7.8587 N   0  0  0  0  0  0  0  0  0  0  0  0
    5.0270    4.9752   -9.0707 C   0  0  0  0  0  0  0  0  0  0  0  0
    3.9668    4.7434   -9.9121 C   0  0  0  0  0  0  0  0  0  0  0  0
    3.0835    3.9398   -9.2123 N   0  0  0  0  0  0  0  0  0  0  0  0
    1.8690    3.4148   -9.7439 C   0  0  0  0  0  0  0  0  0  0  0  0
    1.3648    2.1767   -9.3277 C   0  0  0  0  0  0  0  0  0  0  0  0
    0.1631    1.6910   -9.8574 C   0  0  0  0  0  0  0  0  0  0  0  0
   -0.5497    2.4295  -10.8125 C   0  0  0  0  0  0  0  0  0  0  0  0
   -1.8464    1.9193  -11.3932 C   0  0  0  0  0  0  0  0  0  0  0  0
   -2.2135    0.6964  -10.9182 F   0  0  0  0  0  0  0  0  0  0  0  0
   -2.8951    2.7495  -11.1382 F   0  0  0  0  0  0  0  0  0  0  0  0
   -1.7921    1.7913  -12.7482 F   0  0  0  0  0  0  0  0  0  0  0  0
   -0.0320    3.6623  -11.2344 C   0  0  0  0  0  0  0  0  0  0  0  0
    1.1729    4.1459  -10.7166 C   0  0  0  0  0  0  0  0  0  0  0  0
    0.2386   -2.2347   -5.4393 H   0  0  0  0  0  0  0  0  0  0  0  0
    0.5440   -2.6331   -3.7448 H   0  0  0  0  0  0  0  0  0  0  0  0
    1.0044   -3.7822   -5.0622 H   0  0  0  0  0  0  0  0  0  0  0  0
    2.1883   -4.0993   -3.0307 H   0  0  0  0  0  0  0  0  0  0  0  0
    4.1738   -4.9766   -1.9217 H   0  0  0  0  0  0  0  0  0  0  0  0
    6.4183   -4.0326   -2.4017 H   0  0  0  0  0  0  0  0  0  0  0  0
    6.6486   -2.1499   -3.9794 H   0  0  0  0  0  0  0  0  0  0  0  0
    2.7942   -0.1603   -5.8896 H   0  0  0  0  0  0  0  0  0  0  0  0
    4.1384    0.8603   -6.2840 H   0  0  0  0  0  0  0  0  0  0  0  0
    3.1233    0.4808   -3.4742 H   0  0  0  0  0  0  0  0  0  0  0  0
    5.0047    2.7619   -5.6729 H   0  0  0  0  0  0  0  0  0  0  0  0
    4.2770    4.1920   -4.9258 H   0  0  0  0  0  0  0  0  0  0  0  0
    5.9199    5.5528   -9.2766 H   0  0  0  0  0  0  0  0  0  0  0  0
    3.7991    5.0365  -10.9380 H   0  0  0  0  0  0  0  0  0  0  0  0
    1.9024    1.5436   -8.6263 H   0  0  0  0  0  0  0  0  0  0  0  0
   -0.2119    0.7244   -9.5220 H   0  0  0  0  0  0  0  0  0  0  0  0
   -0.5736    4.2594  -11.9676 H   0  0  0  0  0  0  0  0  0  0  0  0
    1.5198    5.1204  -11.0523 H   0  0  0  0  0  0  0  0  0  0  0  0
  1  2  1  0  0  0  0
  1 32  1  0  0  0  0
  1 33  1  0  0  0  0
  1 34  1  0  0  0  0
  2  3  1  0  0  0  0
  3  4  2  0  0  0  0
  3  8  1  0  0  0  0
  4  5  1  0  0  0  0
  4 35  1  0  0  0  0
  5  6  2  0  0  0  0
  5 36  1  0  0  0  0
  6  7  1  0  0  0  0
  6 37  1  0  0  0  0
  7  8  2  0  0  0  0
  7 38  1  0  0  0  0
  8  9  1  0  0  0  0
  9 10  2  0  0  0  0
  9 11  1  0  0  0  0
 11 12  1  0  0  0  0
 11 39  1  0  0  0  0
 11 40  1  0  0  0  0
 12 13  1  0  0  0  0
 12 41  1  0  0  0  0
 13 14  2  0  0  0  0
 13 15  1  0  0  0  0
 15 16  1  0  0  0  0
 15 42  1  0  0  0  0
 15 43  1  0  0  0  0
 16 17  1  0  0  0  0
 17 18  2  0  0  0  0
 17 21  1  0  0  0  0
 18 19  1  0  0  0  0
 19 20  2  0  0  0  0
 19 44  1  0  0  0  0
 20 21  1  0  0  0  0
 20 45  1  0  0  0  0
 21 22  1  0  0  0  0
 22 23  2  0  0  0  0
 22 31  1  0  0  0  0
 23 24  1  0  0  0  0
 23 46  1  0  0  0  0
 24 25  2  0  0  0  0
 24 47  1  0  0  0  0
 25 26  1  0  0  0  0
 25 30  1  0  0  0  0
 26 27  1  0  0  0  0
 26 28  1  0  0  0  0
 26 29  1  0  0  0  0
 30 31  2  0  0  0  0
 30 48  1  0  0  0  0
 31 49  1  0  0  0  0
M  END
$$$$
