
 OpenBabel01122422413D

 46 49  0  0  0  0  0  0  0  0999 V2000
    2.5295    0.1772   -0.1078 C   0  0  0  0  0  0  0  0  0  0  0  0
    1.0279    0.0455   -0.0451 C   0  0  0  0  0  0  0  0  0  0  0  0
    0.2909    1.2588   -0.0392 C   0  0  0  0  0  0  0  0  0  0  0  0
   -1.1041    1.2549   -0.0215 C   0  0  0  0  0  0  0  0  0  0  0  0
   -1.9251    2.4938    0.0514 C   0  0  0  0  0  0  0  0  0  0  0  0
   -2.9966    2.4167    0.6444 O   0  0  0  0  0  0  0  0  0  0  0  0
   -1.4378    3.6136   -0.6061 N   0  0  0  0  0  0  0  0  0  0  0  0
   -2.0795    4.8755   -0.6459 C   0  0  0  0  0  0  0  0  0  0  0  0
   -3.1121    5.2320    0.2238 C   0  0  0  0  0  0  0  0  0  0  0  0
   -3.7371    6.4821    0.1265 C   0  0  0  0  0  0  0  0  0  0  0  0
   -3.3640    7.4104   -0.8497 C   0  0  0  0  0  0  0  0  0  0  0  0
   -4.0130    8.6549   -0.9503 N   0  0  0  0  0  0  0  0  0  0  0  0
   -4.7214    9.3728   -0.0294 C   0  0  0  0  0  0  0  0  0  0  0  0
   -5.3347   10.4300   -0.5724 C   0  0  0  0  0  0  0  0  0  0  0  0
   -5.0554   10.3020   -2.0225 C   0  0  0  0  0  0  0  0  0  0  0  0
   -5.6014   10.9508   -2.8956 O   0  0  0  0  0  0  0  0  0  0  0  0
   -4.1426    9.2685   -2.1823 N   0  0  0  0  0  0  0  0  0  0  0  0
   -2.3091    7.0528   -1.7053 C   0  0  0  0  0  0  0  0  0  0  0  0
   -1.6639    5.8101   -1.5953 C   0  0  0  0  0  0  0  0  0  0  0  0
   -1.7746    0.0340    0.0150 C   0  0  0  0  0  0  0  0  0  0  0  0
   -1.0597   -1.1656    0.0416 C   0  0  0  0  0  0  0  0  0  0  0  0
    0.3526   -1.2076    0.0137 C   0  0  0  0  0  0  0  0  0  0  0  0
    1.0203   -2.5448    0.0415 C   0  0  0  0  0  0  0  0  0  0  0  0
    0.4638   -3.6496   -0.6287 C   0  0  0  0  0  0  0  0  0  0  0  0
    1.0917   -4.8880   -0.5735 C   0  0  0  0  0  0  0  0  0  0  0  0
    2.2503   -5.1116    0.0726 N   0  0  0  0  0  0  0  0  0  0  0  0
    2.7776   -4.0588    0.7235 C   0  0  0  0  0  0  0  0  0  0  0  0
    2.1952   -2.7975    0.7603 C   0  0  0  0  0  0  0  0  0  0  0  0
    2.8314    1.2036   -0.3446 H   0  0  0  0  0  0  0  0  0  0  0  0
    2.9432   -0.4630   -0.8923 H   0  0  0  0  0  0  0  0  0  0  0  0
    2.9807   -0.0567    0.8596 H   0  0  0  0  0  0  0  0  0  0  0  0
    0.8266    2.2054   -0.0158 H   0  0  0  0  0  0  0  0  0  0  0  0
   -0.6445    3.4896   -1.2237 H   0  0  0  0  0  0  0  0  0  0  0  0
   -3.4566    4.5651    1.0049 H   0  0  0  0  0  0  0  0  0  0  0  0
   -4.5524    6.6959    0.8131 H   0  0  0  0  0  0  0  0  0  0  0  0
   -4.7175    9.0900    1.0134 H   0  0  0  0  0  0  0  0  0  0  0  0
   -5.9554   11.1811   -0.1246 H   0  0  0  0  0  0  0  0  0  0  0  0
   -4.1996    8.7105   -3.0243 H   0  0  0  0  0  0  0  0  0  0  0  0
   -1.9588    7.7580   -2.4563 H   0  0  0  0  0  0  0  0  0  0  0  0
   -0.8466    5.5889   -2.2794 H   0  0  0  0  0  0  0  0  0  0  0  0
   -2.8627    0.0082    0.0433 H   0  0  0  0  0  0  0  0  0  0  0  0
   -1.6420   -2.0837    0.1055 H   0  0  0  0  0  0  0  0  0  0  0  0
   -0.4603   -3.5688   -1.1925 H   0  0  0  0  0  0  0  0  0  0  0  0
    0.6602   -5.7565   -1.0633 H   0  0  0  0  0  0  0  0  0  0  0  0
    3.7112   -4.2557    1.2433 H   0  0  0  0  0  0  0  0  0  0  0  0
    2.6689   -2.0418    1.3719 H   0  0  0  0  0  0  0  0  0  0  0  0
  1  2  1  0  0  0  0
  1 29  1  0  0  0  0
  1 30  1  0  0  0  0
  1 31  1  0  0  0  0
  2  3  2  0  0  0  0
  2 22  1  0  0  0  0
  3  4  1  0  0  0  0
  3 32  1  0  0  0  0
  4  5  1  0  0  0  0
  4 20  2  0  0  0  0
  5  6  2  0  0  0  0
  5  7  1  0  0  0  0
  7  8  1  0  0  0  0
  7 33  1  0  0  0  0
  8  9  2  0  0  0  0
  8 19  1  0  0  0  0
  9 10  1  0  0  0  0
  9 34  1  0  0  0  0
 10 11  2  0  0  0  0
 10 35  1  0  0  0  0
 11 12  1  0  0  0  0
 11 18  1  0  0  0  0
 12 13  1  0  0  0  0
 12 17  1  0  0  0  0
 13 14  2  0  0  0  0
 13 36  1  0  0  0  0
 14 15  1  0  0  0  0
 14 37  1  0  0  0  0
 15 16  2  0  0  0  0
 15 17  1  0  0  0  0
 17 38  1  0  0  0  0
 18 19  2  0  0  0  0
 18 39  1  0  0  0  0
 19 40  1  0  0  0  0
 20 21  1  0  0  0  0
 20 41  1  0  0  0  0
 21 22  2  0  0  0  0
 21 42  1  0  0  0  0
 22 23  1  0  0  0  0
 23 24  2  0  0  0  0
 23 28  1  0  0  0  0
 24 25  1  0  0  0  0
 24 43  1  0  0  0  0
 25 26  2  0  0  0  0
 25 44  1  0  0  0  0
 26 27  1  0  0  0  0
 27 28  2  0  0  0  0
 27 45  1  0  0  0  0
 28 46  1  0  0  0  0
M  END
$$$$
