
 OpenBabel01122422413D

 55 58  0  0  0  0  0  0  0  0999 V2000
    1.5439   -0.9564    0.2809 C   0  0  0  0  0  0  0  0  0  0  0  0
    2.5381    0.0283    0.0328 O   0  0  0  0  0  0  0  0  0  0  0  0
    3.1644    0.5799    1.1249 C   0  0  0  0  0  0  0  0  0  0  0  0
    2.7688    0.3468    2.4460 C   0  0  0  0  0  0  0  0  0  0  0  0
    3.4727    0.9136    3.5109 C   0  0  0  0  0  0  0  0  0  0  0  0
    4.5935    1.7125    3.2774 C   0  0  0  0  0  0  0  0  0  0  0  0
    5.3337    2.3407    4.4212 C   0  0  0  0  0  0  0  0  0  0  0  0
    5.0100    1.9311    1.9566 C   0  0  0  0  0  0  0  0  0  0  0  0
    4.2970    1.3863    0.8742 C   0  0  0  0  0  0  0  0  0  0  0  0
    4.7383    1.6460   -0.4687 N   0  0  0  0  0  0  0  0  0  0  0  0
    3.8438    2.1398   -1.4220 C   0  0  0  0  0  0  0  0  0  0  0  0
    4.1634    2.2694   -2.7216 C   0  0  0  0  0  0  0  0  0  0  0  0
    3.2156    2.7942   -3.7719 C   0  0  0  0  0  0  0  0  0  0  0  0
    3.6428    3.1325   -4.8722 O   0  0  0  0  0  0  0  0  0  0  0  0
    1.8779    2.8139   -3.4595 N   0  0  0  0  0  0  0  0  0  0  0  0
    0.8770    3.2118   -4.4246 C   0  0  0  0  0  0  0  0  0  0  0  0
    0.5181    4.6702   -4.3082 C   0  0  0  0  0  0  0  0  0  0  0  0
    1.2383    5.6237   -5.0395 C   0  0  0  0  0  0  0  0  0  0  0  0
    0.9140    6.9725   -4.9518 C   0  0  0  0  0  0  0  0  0  0  0  0
   -0.1329    7.3829   -4.1256 C   0  0  0  0  0  0  0  0  0  0  0  0
   -0.8809    6.4605   -3.3691 C   0  0  0  0  0  0  0  0  0  0  0  0
   -1.9730    6.9204   -2.4852 C   0  0  0  0  0  0  0  0  0  0  0  0
   -2.7651    8.0287   -2.7979 C   0  0  0  0  0  0  0  0  0  0  0  0
   -3.6892    8.4985   -1.8688 C   0  0  0  0  0  0  0  0  0  0  0  0
   -3.8210    7.8403   -0.6556 C   0  0  0  0  0  0  0  0  0  0  0  0
   -3.0371    6.7204   -0.4353 C   0  0  0  0  0  0  0  0  0  0  0  0
   -2.1275    6.2455   -1.3175 N   0  0  0  0  0  0  0  0  0  0  0  0
   -0.5263    5.1006   -3.4684 C   0  0  0  0  0  0  0  0  0  0  0  0
    5.5029    1.8862   -3.1330 C   0  0  0  0  0  0  0  0  0  0  0  0
    6.4025    1.4348   -2.2520 C   0  0  0  0  0  0  0  0  0  0  0  0
    6.0558    1.2978   -0.8109 C   0  0  0  0  0  0  0  0  0  0  0  0
    6.9183    0.8606   -0.0519 O   0  0  0  0  0  0  0  0  0  0  0  0
    1.2022   -1.3377   -0.6860 H   0  0  0  0  0  0  0  0  0  0  0  0
    0.6795   -0.5154    0.7878 H   0  0  0  0  0  0  0  0  0  0  0  0
    1.9504   -1.8008    0.8476 H   0  0  0  0  0  0  0  0  0  0  0  0
    1.9172   -0.2797    2.6883 H   0  0  0  0  0  0  0  0  0  0  0  0
    3.1385    0.7182    4.5279 H   0  0  0  0  0  0  0  0  0  0  0  0
    4.9086    2.0392    5.3850 H   0  0  0  0  0  0  0  0  0  0  0  0
    5.2707    3.4315    4.3566 H   0  0  0  0  0  0  0  0  0  0  0  0
    6.3842    2.0351    4.4097 H   0  0  0  0  0  0  0  0  0  0  0  0
    5.8839    2.5521    1.7689 H   0  0  0  0  0  0  0  0  0  0  0  0
    2.8778    2.4315   -1.0269 H   0  0  0  0  0  0  0  0  0  0  0  0
    1.5433    2.5247   -2.5536 H   0  0  0  0  0  0  0  0  0  0  0  0
   -0.0121    2.5901   -4.2474 H   0  0  0  0  0  0  0  0  0  0  0  0
    1.2213    2.9869   -5.4407 H   0  0  0  0  0  0  0  0  0  0  0  0
    2.0641    5.3150   -5.6797 H   0  0  0  0  0  0  0  0  0  0  0  0
    1.4795    7.7087   -5.5162 H   0  0  0  0  0  0  0  0  0  0  0  0
   -0.3403    8.4485   -4.0587 H   0  0  0  0  0  0  0  0  0  0  0  0
   -2.6620    8.5381   -3.7502 H   0  0  0  0  0  0  0  0  0  0  0  0
   -4.2881    9.3773   -2.0903 H   0  0  0  0  0  0  0  0  0  0  0  0
   -4.5169    8.1904    0.0981 H   0  0  0  0  0  0  0  0  0  0  0  0
   -3.1143    6.1632    0.4937 H   0  0  0  0  0  0  0  0  0  0  0  0
   -1.0810    4.3682   -2.8837 H   0  0  0  0  0  0  0  0  0  0  0  0
    5.7592    1.9691   -4.1858 H   0  0  0  0  0  0  0  0  0  0  0  0
    7.4002    1.1308   -2.5410 H   0  0  0  0  0  0  0  0  0  0  0  0
  1  2  1  0  0  0  0
  1 33  1  0  0  0  0
  1 34  1  0  0  0  0
  1 35  1  0  0  0  0
  2  3  1  0  0  0  0
  3  4  2  0  0  0  0
  3  9  1  0  0  0  0
  4  5  1  0  0  0  0
  4 36  1  0  0  0  0
  5  6  2  0  0  0  0
  5 37  1  0  0  0  0
  6  7  1  0  0  0  0
  6  8  1  0  0  0  0
  7 38  1  0  0  0  0
  7 39  1  0  0  0  0
  7 40  1  0  0  0  0
  8  9  2  0  0  0  0
  8 41  1  0  0  0  0
  9 10  1  0  0  0  0
 10 11  1  0  0  0  0
 10 31  1  0  0  0  0
 11 12  2  0  0  0  0
 11 42  1  0  0  0  0
 12 13  1  0  0  0  0
 12 29  1  0  0  0  0
 13 14  2  0  0  0  0
 13 15  1  0  0  0  0
 15 16  1  0  0  0  0
 15 43  1  0  0  0  0
 16 17  1  0  0  0  0
 16 44  1  0  0  0  0
 16 45  1  0  0  0  0
 17 18  2  0  0  0  0
 17 28  1  0  0  0  0
 18 19  1  0  0  0  0
 18 46  1  0  0  0  0
 19 20  2  0  0  0  0
 19 47  1  0  0  0  0
 20 21  1  0  0  0  0
 20 48  1  0  0  0  0
 21 22  1  0  0  0  0
 21 28  2  0  0  0  0
 22 23  2  0  0  0  0
 22 27  1  0  0  0  0
 23 24  1  0  0  0  0
 23 49  1  0  0  0  0
 24 25  2  0  0  0  0
 24 50  1  0  0  0  0
 25 26  1  0  0  0  0
 25 51  1  0  0  0  0
 26 27  2  0  0  0  0
 26 52  1  0  0  0  0
 28 53  1  0  0  0  0
 29 30  2  0  0  0  0
 29 54  1  0  0  0  0
 30 31  1  0  0  0  0
 30 55  1  0  0  0  0
 31 32  2  0  0  0  0
M  END
$$$$
