
 OpenBabel01122422353D

 44 47  0  0  0  0  0  0  0  0999 V2000
    0.9806    0.1038    1.1825 C   0  0  0  0  0  0  0  0  0  0  0  0
    2.4489    0.1535    0.8588 C   0  0  0  0  0  0  0  0  0  0  0  0
    3.1574    1.2266    0.4427 C   0  0  0  0  0  0  0  0  0  0  0  0
    2.5890    2.4649    0.2359 N   0  0  0  0  0  0  0  0  0  0  0  0
    3.2837    3.6151   -0.1152 C   0  0  0  0  0  0  0  0  0  0  0  0
    4.5055    3.6585   -0.2233 O   0  0  0  0  0  0  0  0  0  0  0  0
    2.4685    4.8472   -0.3476 C   0  0  0  0  0  0  0  0  0  0  0  0
    1.3153    5.0534    0.4368 C   0  0  0  0  0  0  0  0  0  0  0  0
    0.5581    6.2159    0.3003 C   0  0  0  0  0  0  0  0  0  0  0  0
    0.9561    7.1991   -0.5960 C   0  0  0  0  0  0  0  0  0  0  0  0
    2.1096    7.0195   -1.3619 C   0  0  0  0  0  0  0  0  0  0  0  0
    2.8755    5.8423   -1.2655 C   0  0  0  0  0  0  0  0  0  0  0  0
    4.0457    5.7334   -2.1288 C   0  0  0  0  0  0  0  0  0  0  0  0
    4.8796    6.6622   -2.5534 N   0  0  0  0  0  0  0  0  0  0  0  0
    5.8155    6.0141   -3.3402 N   0  0  0  0  0  0  0  0  0  0  0  0
    5.4652    4.7429   -3.3641 C   0  0  0  0  0  0  0  0  0  0  0  0
    6.0903    3.5925   -4.0022 C   0  0  0  0  0  0  0  0  0  0  0  0
    7.2676    3.7540   -4.7511 C   0  0  0  0  0  0  0  0  0  0  0  0
    7.8535    2.6618   -5.3978 C   0  0  0  0  0  0  0  0  0  0  0  0
    7.2675    1.4068   -5.2913 C   0  0  0  0  0  0  0  0  0  0  0  0
    7.8165    0.3653   -5.9332 F   0  0  0  0  0  0  0  0  0  0  0  0
    6.1187    1.2150   -4.5401 C   0  0  0  0  0  0  0  0  0  0  0  0
    5.5321    2.3063   -3.8895 C   0  0  0  0  0  0  0  0  0  0  0  0
    4.3015    4.5099   -2.6804 O   0  0  0  0  0  0  0  0  0  0  0  0
    4.4958    1.0823    0.1839 N   0  0  0  0  0  0  0  0  0  0  0  0
    5.2027   -0.0840    0.2605 C   0  0  0  0  0  0  0  0  0  0  0  0
    6.3864   -0.1828   -0.0404 O   0  0  0  0  0  0  0  0  0  0  0  0
    4.4418   -1.2574    0.7381 C   0  0  0  0  0  0  0  0  0  0  0  0
    3.1416   -1.1210    1.0318 C   0  0  0  0  0  0  0  0  0  0  0  0
    0.4641    1.0542    1.0302 H   0  0  0  0  0  0  0  0  0  0  0  0
    0.8281   -0.1809    2.2294 H   0  0  0  0  0  0  0  0  0  0  0  0
    0.4811   -0.6374    0.5486 H   0  0  0  0  0  0  0  0  0  0  0  0
    1.5861    2.5241    0.3205 H   0  0  0  0  0  0  0  0  0  0  0  0
    1.0097    4.3379    1.1956 H   0  0  0  0  0  0  0  0  0  0  0  0
   -0.3295    6.3648    0.9113 H   0  0  0  0  0  0  0  0  0  0  0  0
    0.3791    8.1165   -0.6933 H   0  0  0  0  0  0  0  0  0  0  0  0
    2.4127    7.8105   -2.0488 H   0  0  0  0  0  0  0  0  0  0  0  0
    7.7350    4.7346   -4.8352 H   0  0  0  0  0  0  0  0  0  0  0  0
    8.7582    2.7843   -5.9845 H   0  0  0  0  0  0  0  0  0  0  0  0
    5.6845    0.2247   -4.4537 H   0  0  0  0  0  0  0  0  0  0  0  0
    4.6392    2.1394   -3.2934 H   0  0  0  0  0  0  0  0  0  0  0  0
    5.0129    1.9089   -0.1115 H   0  0  0  0  0  0  0  0  0  0  0  0
    4.9837   -2.1878    0.8394 H   0  0  0  0  0  0  0  0  0  0  0  0
    2.5824   -1.9744    1.4022 H   0  0  0  0  0  0  0  0  0  0  0  0
  1  2  1  0  0  0  0
  1 30  1  0  0  0  0
  1 31  1  0  0  0  0
  1 32  1  0  0  0  0
  2  3  2  0  0  0  0
  2 29  1  0  0  0  0
  3  4  1  0  0  0  0
  3 25  1  0  0  0  0
  4  5  1  0  0  0  0
  4 33  1  0  0  0  0
  5  6  2  0  0  0  0
  5  7  1  0  0  0  0
  7  8  2  0  0  0  0
  7 12  1  0  0  0  0
  8  9  1  0  0  0  0
  8 34  1  0  0  0  0
  9 10  2  0  0  0  0
  9 35  1  0  0  0  0
 10 11  1  0  0  0  0
 10 36  1  0  0  0  0
 11 12  2  0  0  0  0
 11 37  1  0  0  0  0
 12 13  1  0  0  0  0
 13 14  2  0  0  0  0
 13 24  1  0  0  0  0
 14 15  1  0  0  0  0
 15 16  2  0  0  0  0
 16 17  1  0  0  0  0
 16 24  1  0  0  0  0
 17 18  2  0  0  0  0
 17 23  1  0  0  0  0
 18 19  1  0  0  0  0
 18 38  1  0  0  0  0
 19 20  2  0  0  0  0
 19 39  1  0  0  0  0
 20 21  1  0  0  0  0
 20 22  1  0  0  0  0
 22 23  2  0  0  0  0
 22 40  1  0  0  0  0
 23 41  1  0  0  0  0
 25 26  1  0  0  0  0
 25 42  1  0  0  0  0
 26 27  2  0  0  0  0
 26 28  1  0  0  0  0
 28 29  2  0  0  0  0
 28 43  1  0  0  0  0
 29 44  1  0  0  0  0
M  END
$$$$
