
 OpenBabel01122422413D

 46 49  0  0  0  0  0  0  0  0999 V2000
    1.0112    0.2299    0.1812 O   0  0  0  0  0  0  0  0  0  0  0  0
    2.2385    0.1618    0.0989 C   0  0  0  0  0  0  0  0  0  0  0  0
    2.9724   -0.7797    0.7879 N   0  0  0  0  0  0  0  0  0  0  0  0
    2.3602   -1.7251    1.6873 C   0  0  0  0  0  0  0  0  0  0  0  0
    2.8627   -1.5499    3.0975 C   0  0  0  0  0  0  0  0  0  0  0  0
    3.9015   -2.3429    3.5934 C   0  0  0  0  0  0  0  0  0  0  0  0
    4.3663   -2.1552    4.8926 C   0  0  0  0  0  0  0  0  0  0  0  0
    3.8151   -1.1559    5.6986 C   0  0  0  0  0  0  0  0  0  0  0  0
    2.7920   -0.3145    5.2265 C   0  0  0  0  0  0  0  0  0  0  0  0
    2.2755    0.8036    6.0448 C   0  0  0  0  0  0  0  0  0  0  0  0
    0.9403    1.2280    5.9908 C   0  0  0  0  0  0  0  0  0  0  0  0
    0.5070    2.3153    6.7508 C   0  0  0  0  0  0  0  0  0  0  0  0
    1.4223    2.9555    7.5657 C   0  0  0  0  0  0  0  0  0  0  0  0
    2.7154    2.5910    7.6623 N   0  0  0  0  0  0  0  0  0  0  0  0
    3.1051    1.5384    6.8997 C   0  0  0  0  0  0  0  0  0  0  0  0
    2.3146   -0.5507    3.9226 C   0  0  0  0  0  0  0  0  0  0  0  0
    3.0425    1.0832   -0.7125 C   0  0  0  0  0  0  0  0  0  0  0  0
    4.3922    1.0262   -0.7342 N   0  0  0  0  0  0  0  0  0  0  0  0
    4.7815    2.0969   -1.4813 N   0  0  0  0  0  0  0  0  0  0  0  0
    6.1604    2.4210   -1.6155 C   0  0  0  0  0  0  0  0  0  0  0  0
    6.5773    3.5714   -2.3045 C   0  0  0  0  0  0  0  0  0  0  0  0
    7.9378    3.8888   -2.3813 C   0  0  0  0  0  0  0  0  0  0  0  0
    8.8836    3.0580   -1.7845 C   0  0  0  0  0  0  0  0  0  0  0  0
    8.4659    1.9144   -1.1157 C   0  0  0  0  0  0  0  0  0  0  0  0
    9.3773    1.1146   -0.5466 F   0  0  0  0  0  0  0  0  0  0  0  0
    7.1185    1.5877   -1.0220 C   0  0  0  0  0  0  0  0  0  0  0  0
    3.7046    2.7720   -2.0103 C   0  0  0  0  0  0  0  0  0  0  0  0
    2.5904    2.1337   -1.5415 C   0  0  0  0  0  0  0  0  0  0  0  0
    1.3331    2.5031   -1.8258 O   0  0  0  0  0  0  0  0  0  0  0  0
    3.9800   -0.7467    0.6705 H   0  0  0  0  0  0  0  0  0  0  0  0
    2.5917   -2.7290    1.3170 H   0  0  0  0  0  0  0  0  0  0  0  0
    1.2691   -1.6268    1.6743 H   0  0  0  0  0  0  0  0  0  0  0  0
    4.3553   -3.1110    2.9720 H   0  0  0  0  0  0  0  0  0  0  0  0
    5.1697   -2.7776    5.2790 H   0  0  0  0  0  0  0  0  0  0  0  0
    4.2063   -1.0406    6.7079 H   0  0  0  0  0  0  0  0  0  0  0  0
    0.2194    0.7188    5.3559 H   0  0  0  0  0  0  0  0  0  0  0  0
   -0.5220    2.6531    6.7028 H   0  0  0  0  0  0  0  0  0  0  0  0
    1.1328    3.8045    8.1772 H   0  0  0  0  0  0  0  0  0  0  0  0
    4.1639    1.3090    6.9900 H   0  0  0  0  0  0  0  0  0  0  0  0
    1.5180    0.0707    3.5138 H   0  0  0  0  0  0  0  0  0  0  0  0
    5.8758    4.2514   -2.7779 H   0  0  0  0  0  0  0  0  0  0  0  0
    8.2585    4.7888   -2.9009 H   0  0  0  0  0  0  0  0  0  0  0  0
    9.9420    3.2944   -1.8328 H   0  0  0  0  0  0  0  0  0  0  0  0
    6.8412    0.6874   -0.4811 H   0  0  0  0  0  0  0  0  0  0  0  0
    3.8154    3.6393   -2.6412 H   0  0  0  0  0  0  0  0  0  0  0  0
    1.3166    3.2546   -2.4411 H   0  0  0  0  0  0  0  0  0  0  0  0
  1  2  2  0  0  0  0
  2  3  1  0  0  0  0
  2 17  1  0  0  0  0
  3  4  1  0  0  0  0
  3 30  1  0  0  0  0
  4  5  1  0  0  0  0
  4 31  1  0  0  0  0
  4 32  1  0  0  0  0
  5  6  2  0  0  0  0
  5 16  1  0  0  0  0
  6  7  1  0  0  0  0
  6 33  1  0  0  0  0
  7  8  2  0  0  0  0
  7 34  1  0  0  0  0
  8  9  1  0  0  0  0
  8 35  1  0  0  0  0
  9 10  1  0  0  0  0
  9 16  2  0  0  0  0
 10 11  2  0  0  0  0
 10 15  1  0  0  0  0
 11 12  1  0  0  0  0
 11 36  1  0  0  0  0
 12 13  2  0  0  0  0
 12 37  1  0  0  0  0
 13 14  1  0  0  0  0
 13 38  1  0  0  0  0
 14 15  2  0  0  0  0
 15 39  1  0  0  0  0
 16 40  1  0  0  0  0
 17 18  2  0  0  0  0
 17 28  1  0  0  0  0
 18 19  1  0  0  0  0
 19 20  1  0  0  0  0
 19 27  1  0  0  0  0
 20 21  2  0  0  0  0
 20 26  1  0  0  0  0
 21 22  1  0  0  0  0
 21 41  1  0  0  0  0
 22 23  2  0  0  0  0
 22 42  1  0  0  0  0
 23 24  1  0  0  0  0
 23 43  1  0  0  0  0
 24 25  1  0  0  0  0
 24 26  2  0  0  0  0
 26 44  1  0  0  0  0
 27 28  2  0  0  0  0
 27 45  1  0  0  0  0
 28 29  1  0  0  0  0
 29 46  1  0  0  0  0
M  END
$$$$
