
 OpenBabel01122422413D

 54 57  0  0  0  0  0  0  0  0999 V2000
    1.1711    0.2778   -0.0954 C   0  0  0  0  0  0  0  0  0  0  0  0
    2.6354    0.0641   -0.0366 C   0  0  0  0  0  0  0  0  0  0  0  0
    3.4168   -1.0866   -0.0083 C   0  0  0  0  0  0  0  0  0  0  0  0
    3.0103   -2.4905   -0.0298 C   0  0  0  0  0  0  0  0  0  0  0  0
    1.8376   -2.8472   -0.0887 O   0  0  0  0  0  0  0  0  0  0  0  0
    4.0666   -3.3766    0.0224 N   0  0  0  0  0  0  0  0  0  0  0  0
    3.8782   -4.8029   -0.0998 C   0  0  0  0  0  0  0  0  0  0  0  0
    4.8964   -5.5959    0.6832 C   0  0  0  0  0  0  0  0  0  0  0  0
    5.0570   -5.3826    2.0573 C   0  0  0  0  0  0  0  0  0  0  0  0
    5.9286   -6.1779    2.7969 C   0  0  0  0  0  0  0  0  0  0  0  0
    6.6254   -7.2187    2.1790 C   0  0  0  0  0  0  0  0  0  0  0  0
    6.4650   -7.4959    0.8103 C   0  0  0  0  0  0  0  0  0  0  0  0
    7.0969   -8.6739    0.1735 C   0  0  0  0  0  0  0  0  0  0  0  0
    7.2839   -9.8789    0.8575 C   0  0  0  0  0  0  0  0  0  0  0  0
    7.8157  -10.9788    0.1867 C   0  0  0  0  0  0  0  0  0  0  0  0
    8.1548  -10.8545   -1.1530 C   0  0  0  0  0  0  0  0  0  0  0  0
    7.9458   -9.6313   -1.7634 C   0  0  0  0  0  0  0  0  0  0  0  0
    7.4245   -8.5495   -1.1385 N   0  0  0  0  0  0  0  0  0  0  0  0
    5.6178   -6.6409    0.0737 C   0  0  0  0  0  0  0  0  0  0  0  0
    4.7407   -0.7228    0.0499 N   0  0  0  0  0  0  0  0  0  0  0  0
    4.8099    0.5939    0.0619 N   0  0  0  0  0  0  0  0  0  0  0  0
    3.5565    1.0819    0.0079 N   0  0  0  0  0  0  0  0  0  0  0  0
    3.3396    2.5242   -0.0078 C   0  0  0  0  0  0  0  0  0  0  0  0
    4.6561    3.3011    0.0431 C   0  0  0  0  0  0  0  0  0  0  0  0
    4.4714    4.7206    0.0041 O   0  0  0  0  0  0  0  0  0  0  0  0
    5.6481    5.4410    0.0041 C   0  0  0  0  0  0  0  0  0  0  0  0
    6.9359    4.8888    0.0791 C   0  0  0  0  0  0  0  0  0  0  0  0
    8.0660    5.7094    0.0591 C   0  0  0  0  0  0  0  0  0  0  0  0
    7.9105    7.0844   -0.0324 C   0  0  0  0  0  0  0  0  0  0  0  0
    8.9964    7.8684   -0.0559 F   0  0  0  0  0  0  0  0  0  0  0  0
    6.6453    7.6535   -0.1008 C   0  0  0  0  0  0  0  0  0  0  0  0
    5.5128    6.8305   -0.0817 C   0  0  0  0  0  0  0  0  0  0  0  0
    0.6238   -0.6604   -0.2181 H   0  0  0  0  0  0  0  0  0  0  0  0
    0.9066    0.9219   -0.9400 H   0  0  0  0  0  0  0  0  0  0  0  0
    0.8146    0.7515    0.8250 H   0  0  0  0  0  0  0  0  0  0  0  0
    5.0029   -2.9945   -0.0587 H   0  0  0  0  0  0  0  0  0  0  0  0
    3.9391   -5.0392   -1.1678 H   0  0  0  0  0  0  0  0  0  0  0  0
    2.8752   -5.0832    0.2413 H   0  0  0  0  0  0  0  0  0  0  0  0
    4.4893   -4.6032    2.5617 H   0  0  0  0  0  0  0  0  0  0  0  0
    6.0513   -6.0044    3.8628 H   0  0  0  0  0  0  0  0  0  0  0  0
    7.2925   -7.8208    2.7925 H   0  0  0  0  0  0  0  0  0  0  0  0
    6.9892   -9.9848    1.8963 H   0  0  0  0  0  0  0  0  0  0  0  0
    7.9494  -11.9240    0.7052 H   0  0  0  0  0  0  0  0  0  0  0  0
    8.5609  -11.6929   -1.7072 H   0  0  0  0  0  0  0  0  0  0  0  0
    8.1939   -9.4838   -2.8111 H   0  0  0  0  0  0  0  0  0  0  0  0
    5.4892   -6.8279   -0.9924 H   0  0  0  0  0  0  0  0  0  0  0  0
    2.7059    2.7760    0.8500 H   0  0  0  0  0  0  0  0  0  0  0  0
    2.7831    2.7657   -0.9201 H   0  0  0  0  0  0  0  0  0  0  0  0
    5.2608    3.0027   -0.8230 H   0  0  0  0  0  0  0  0  0  0  0  0
    5.1728    3.0410    0.9760 H   0  0  0  0  0  0  0  0  0  0  0  0
    7.1057    3.8190    0.1526 H   0  0  0  0  0  0  0  0  0  0  0  0
    9.0609    5.2785    0.1127 H   0  0  0  0  0  0  0  0  0  0  0  0
    6.5501    8.7323   -0.1704 H   0  0  0  0  0  0  0  0  0  0  0  0
    4.5248    7.2805   -0.1372 H   0  0  0  0  0  0  0  0  0  0  0  0
  1  2  1  0  0  0  0
  1 33  1  0  0  0  0
  1 34  1  0  0  0  0
  1 35  1  0  0  0  0
  2  3  2  0  0  0  0
  2 22  1  0  0  0  0
  3  4  1  0  0  0  0
  3 20  1  0  0  0  0
  4  5  2  0  0  0  0
  4  6  1  0  0  0  0
  6  7  1  0  0  0  0
  6 36  1  0  0  0  0
  7  8  1  0  0  0  0
  7 37  1  0  0  0  0
  7 38  1  0  0  0  0
  8  9  2  0  0  0  0
  8 19  1  0  0  0  0
  9 10  1  0  0  0  0
  9 39  1  0  0  0  0
 10 11  2  0  0  0  0
 10 40  1  0  0  0  0
 11 12  1  0  0  0  0
 11 41  1  0  0  0  0
 12 13  1  0  0  0  0
 12 19  2  0  0  0  0
 13 14  2  0  0  0  0
 13 18  1  0  0  0  0
 14 15  1  0  0  0  0
 14 42  1  0  0  0  0
 15 16  2  0  0  0  0
 15 43  1  0  0  0  0
 16 17  1  0  0  0  0
 16 44  1  0  0  0  0
 17 18  2  0  0  0  0
 17 45  1  0  0  0  0
 19 46  1  0  0  0  0
 20 21  2  0  0  0  0
 21 22  1  0  0  0  0
 22 23  1  0  0  0  0
 23 24  1  0  0  0  0
 23 47  1  0  0  0  0
 23 48  1  0  0  0  0
 24 25  1  0  0  0  0
 24 49  1  0  0  0  0
 24 50  1  0  0  0  0
 25 26  1  0  0  0  0
 26 27  2  0  0  0  0
 26 32  1  0  0  0  0
 27 28  1  0  0  0  0
 27 51  1  0  0  0  0
 28 29  2  0  0  0  0
 28 52  1  0  0  0  0
 29 30  1  0  0  0  0
 29 31  1  0  0  0  0
 31 32  2  0  0  0  0
 31 53  1  0  0  0  0
 32 54  1  0  0  0  0
M  END
$$$$
