
 OpenBabel01122422413D

 45 48  0  0  0  0  0  0  0  0999 V2000
    2.6930   -0.8077   -0.8684 O   0  0  0  0  0  0  0  0  0  0  0  0
    2.2430   -0.0019   -0.0595 C   0  0  0  0  0  0  0  0  0  0  0  0
    0.9008    0.3179    0.0488 N   0  0  0  0  0  0  0  0  0  0  0  0
   -0.0982   -0.1445   -0.8411 C   0  0  0  0  0  0  0  0  0  0  0  0
    0.0598   -1.2676   -1.6602 C   0  0  0  0  0  0  0  0  0  0  0  0
   -0.8953   -1.6023   -2.6236 C   0  0  0  0  0  0  0  0  0  0  0  0
   -2.0217   -0.7922   -2.7909 C   0  0  0  0  0  0  0  0  0  0  0  0
   -2.9164   -1.0664   -3.8502 N   0  0  0  0  0  0  0  0  0  0  0  0
   -3.7896   -0.1973   -4.4686 C   0  0  0  0  0  0  0  0  0  0  0  0
   -4.4483   -0.9080   -5.4421 C   0  0  0  0  0  0  0  0  0  0  0  0
   -3.9113   -2.1994   -5.3565 C   0  0  0  0  0  0  0  0  0  0  0  0
   -2.9500   -2.2929   -4.4369 N   0  0  0  0  0  0  0  0  0  0  0  0
   -2.2165    0.2838   -1.9268 C   0  0  0  0  0  0  0  0  0  0  0  0
   -3.3223    1.0399   -1.9876 F   0  0  0  0  0  0  0  0  0  0  0  0
   -1.2769    0.5962   -0.9408 C   0  0  0  0  0  0  0  0  0  0  0  0
    3.0371    0.7414    0.7820 N   0  0  0  0  0  0  0  0  0  0  0  0
    4.4206    0.8337    0.7444 C   0  0  0  0  0  0  0  0  0  0  0  0
    5.2225    0.2486   -0.1650 C   0  0  0  0  0  0  0  0  0  0  0  0
    6.6439    0.4210   -0.1452 C   0  0  0  0  0  0  0  0  0  0  0  0
    7.2162    1.1388    0.8208 C   0  0  0  0  0  0  0  0  0  0  0  0
    6.4681    1.7645    1.8108 N   0  0  0  0  0  0  0  0  0  0  0  0
    7.1267    2.4428    2.8798 C   0  0  0  0  0  0  0  0  0  0  0  0
    8.1761    1.8107    3.5628 C   0  0  0  0  0  0  0  0  0  0  0  0
    8.7711    2.4259    4.6650 C   0  0  0  0  0  0  0  0  0  0  0  0
    8.3545    3.6949    5.0617 C   0  0  0  0  0  0  0  0  0  0  0  0
    7.3463    4.3507    4.3574 C   0  0  0  0  0  0  0  0  0  0  0  0
    6.7247    3.7215    3.2774 C   0  0  0  0  0  0  0  0  0  0  0  0
    5.0605    1.6858    1.8226 C   0  0  0  0  0  0  0  0  0  0  0  0
    4.3054    2.2027    2.6540 O   0  0  0  0  0  0  0  0  0  0  0  0
    0.6790    1.1299    0.6065 H   0  0  0  0  0  0  0  0  0  0  0  0
    0.9358   -1.9089   -1.5938 H   0  0  0  0  0  0  0  0  0  0  0  0
   -0.7103   -2.4568   -3.2710 H   0  0  0  0  0  0  0  0  0  0  0  0
   -3.8398    0.8464   -4.1959 H   0  0  0  0  0  0  0  0  0  0  0  0
   -5.2001   -0.5377   -6.1236 H   0  0  0  0  0  0  0  0  0  0  0  0
   -4.1657   -3.0756   -5.9387 H   0  0  0  0  0  0  0  0  0  0  0  0
   -1.4697    1.4487   -0.2977 H   0  0  0  0  0  0  0  0  0  0  0  0
    2.6094    1.2333    1.5627 H   0  0  0  0  0  0  0  0  0  0  0  0
    4.8449   -0.3812   -0.9596 H   0  0  0  0  0  0  0  0  0  0  0  0
    7.2269   -0.0405   -0.9363 H   0  0  0  0  0  0  0  0  0  0  0  0
    8.2924    1.2916    0.8337 H   0  0  0  0  0  0  0  0  0  0  0  0
    8.4898    0.8059    3.2909 H   0  0  0  0  0  0  0  0  0  0  0  0
    9.5427    1.9051    5.2260 H   0  0  0  0  0  0  0  0  0  0  0  0
    8.8101    4.1706    5.9266 H   0  0  0  0  0  0  0  0  0  0  0  0
    7.0316    5.3474    4.6560 H   0  0  0  0  0  0  0  0  0  0  0  0
    5.9381    4.2454    2.7398 H   0  0  0  0  0  0  0  0  0  0  0  0
  1  2  2  0  0  0  0
  2  3  1  0  0  0  0
  2 16  1  0  0  0  0
  3  4  1  0  0  0  0
  3 30  1  0  0  0  0
  4  5  2  0  0  0  0
  4 15  1  0  0  0  0
  5  6  1  0  0  0  0
  5 31  1  0  0  0  0
  6  7  2  0  0  0  0
  6 32  1  0  0  0  0
  7  8  1  0  0  0  0
  7 13  1  0  0  0  0
  8  9  1  0  0  0  0
  8 12  1  0  0  0  0
  9 10  2  0  0  0  0
  9 33  1  0  0  0  0
 10 11  1  0  0  0  0
 10 34  1  0  0  0  0
 11 12  2  0  0  0  0
 11 35  1  0  0  0  0
 13 14  1  0  0  0  0
 13 15  2  0  0  0  0
 15 36  1  0  0  0  0
 16 17  1  0  0  0  0
 16 37  1  0  0  0  0
 17 18  2  0  0  0  0
 17 28  1  0  0  0  0
 18 19  1  0  0  0  0
 18 38  1  0  0  0  0
 19 20  2  0  0  0  0
 19 39  1  0  0  0  0
 20 21  1  0  0  0  0
 20 40  1  0  0  0  0
 21 22  1  0  0  0  0
 21 28  1  0  0  0  0
 22 23  2  0  0  0  0
 22 27  1  0  0  0  0
 23 24  1  0  0  0  0
 23 41  1  0  0  0  0
 24 25  2  0  0  0  0
 24 42  1  0  0  0  0
 25 26  1  0  0  0  0
 25 43  1  0  0  0  0
 26 27  2  0  0  0  0
 26 44  1  0  0  0  0
 27 45  1  0  0  0  0
 28 29  2  0  0  0  0
M  END
$$$$
