
 OpenBabel01122422413D

 55 58  0  0  1  0  0  0  0  0999 V2000
   -0.1775   -5.9336   -3.2414 C   0  0  0  0  0  0  0  0  0  0  0  0
   -0.5361   -5.5595   -1.8356 C   0  0  0  0  0  0  0  0  0  0  0  0
   -0.3464   -6.4686   -0.7827 C   0  0  0  0  0  0  0  0  0  0  0  0
   -0.6999   -6.1166    0.5163 C   0  0  0  0  0  0  0  0  0  0  0  0
   -1.2359   -4.8570    0.7817 C   0  0  0  0  0  0  0  0  0  0  0  0
   -1.3980   -3.9193   -0.2459 C   0  0  0  0  0  0  0  0  0  0  0  0
   -1.8752   -2.5105    0.0307 C   0  0  0  0  0  0  0  0  0  0  0  0
   -3.3226   -2.3272   -0.0374 N   0  0  0  0  0  0  0  0  0  0  0  0
   -4.0835   -2.4979    1.1053 C   0  0  0  0  0  0  0  0  0  0  0  0
   -5.3732   -2.1506    1.1348 C   0  0  0  0  0  0  0  0  0  0  0  0
   -5.9950   -1.5937   -0.0401 C   0  0  0  0  0  0  0  0  0  0  0  0
   -5.3190   -1.4536   -1.1958 C   0  0  0  0  0  0  0  0  0  0  0  0
   -6.0419   -0.8751   -2.3710 C   0  0  0  0  0  0  0  0  0  0  0  0
   -7.2217   -0.5417   -2.2991 O   0  0  0  0  0  0  0  0  0  0  0  0
   -5.2979   -0.7435   -3.5106 N   0  0  0  0  0  0  0  0  0  0  0  0
   -5.8336   -0.1906   -4.7362 C   0  0  3  0  0  0  0  0  0  0  0  0
   -5.6605    1.3213   -4.8406 C   0  0  0  0  0  0  0  0  0  0  0  0
   -4.5727    2.0010   -4.2575 C   0  0  0  0  0  0  0  0  0  0  0  0
   -4.4564    3.3887   -4.3690 C   0  0  0  0  0  0  0  0  0  0  0  0
   -5.4178    4.1060   -5.0686 C   0  0  0  0  0  0  0  0  0  0  0  0
   -5.3021    5.4363   -5.1742 F   0  0  0  0  0  0  0  0  0  0  0  0
   -6.4970    3.4630   -5.6599 C   0  0  0  0  0  0  0  0  0  0  0  0
   -6.6186    2.0762   -5.5465 C   0  0  0  0  0  0  0  0  0  0  0  0
   -5.1094   -0.7765   -5.9292 C   0  0  0  0  0  0  0  0  0  0  0  0
   -5.7831   -1.4761   -6.8611 N   0  0  0  0  0  0  0  0  0  0  0  0
   -4.8533   -1.7971   -7.7768 N   0  0  0  0  0  0  0  0  0  0  0  0
   -5.2385   -2.4837   -8.9862 C   0  0  0  0  0  0  0  0  0  0  0  0
   -3.6008   -1.3680   -7.4570 C   0  0  0  0  0  0  0  0  0  0  0  0
   -3.7248   -0.7118   -6.2561 C   0  0  0  0  0  0  0  0  0  0  0  0
   -3.8709   -1.8412   -1.2249 C   0  0  0  0  0  0  0  0  0  0  0  0
   -3.2061   -1.6667   -2.2495 O   0  0  0  0  0  0  0  0  0  0  0  0
   -1.0568   -4.2899   -1.5562 C   0  0  0  0  0  0  0  0  0  0  0  0
    0.1981   -6.9604   -3.2958 H   0  0  0  0  0  0  0  0  0  0  0  0
    0.6044   -5.2683   -3.6197 H   0  0  0  0  0  0  0  0  0  0  0  0
   -1.0590   -5.8640   -3.8844 H   0  0  0  0  0  0  0  0  0  0  0  0
    0.0763   -7.4488   -0.9778 H   0  0  0  0  0  0  0  0  0  0  0  0
   -0.5471   -6.8301    1.3260 H   0  0  0  0  0  0  0  0  0  0  0  0
   -1.5023   -4.6161    1.8093 H   0  0  0  0  0  0  0  0  0  0  0  0
   -1.3927   -1.8225   -0.6726 H   0  0  0  0  0  0  0  0  0  0  0  0
   -1.5306   -2.1907    1.0225 H   0  0  0  0  0  0  0  0  0  0  0  0
   -3.5863   -2.9049    1.9816 H   0  0  0  0  0  0  0  0  0  0  0  0
   -5.9666   -2.2598    2.0373 H   0  0  0  0  0  0  0  0  0  0  0  0
   -7.0340   -1.2864    0.0485 H   0  0  0  0  0  0  0  0  0  0  0  0
   -4.3048   -0.9608   -3.4747 H   0  0  0  0  0  0  0  0  0  0  0  0
   -6.9029   -0.4334   -4.7841 H   0  0  0  0  0  0  0  0  0  0  0  0
   -3.8081    1.4583   -3.7064 H   0  0  0  0  0  0  0  0  0  0  0  0
   -3.6255    3.9132   -3.9094 H   0  0  0  0  0  0  0  0  0  0  0  0
   -7.2384    4.0416   -6.2012 H   0  0  0  0  0  0  0  0  0  0  0  0
   -7.4726    1.5811   -6.0060 H   0  0  0  0  0  0  0  0  0  0  0  0
   -6.2792   -2.8086   -8.9076 H   0  0  0  0  0  0  0  0  0  0  0  0
   -4.5872   -3.3511   -9.1192 H   0  0  0  0  0  0  0  0  0  0  0  0
   -5.1258   -1.7874   -9.8212 H   0  0  0  0  0  0  0  0  0  0  0  0
   -2.7511   -1.5423   -8.1024 H   0  0  0  0  0  0  0  0  0  0  0  0
   -2.9367   -0.2209   -5.7035 H   0  0  0  0  0  0  0  0  0  0  0  0
   -1.1821   -3.5721   -2.3665 H   0  0  0  0  0  0  0  0  0  0  0  0
  1  2  1  0  0  0  0
  1 33  1  0  0  0  0
  1 34  1  0  0  0  0
  1 35  1  0  0  0  0
  2  3  2  0  0  0  0
  2 32  1  0  0  0  0
  3  4  1  0  0  0  0
  3 36  1  0  0  0  0
  4  5  2  0  0  0  0
  4 37  1  0  0  0  0
  5  6  1  0  0  0  0
  5 38  1  0  0  0  0
  6  7  1  0  0  0  0
  6 32  2  0  0  0  0
  7  8  1  0  0  0  0
  7 39  1  0  0  0  0
  7 40  1  0  0  0  0
  8  9  1  0  0  0  0
  8 30  1  0  0  0  0
  9 10  2  0  0  0  0
  9 41  1  0  0  0  0
 10 11  1  0  0  0  0
 10 42  1  0  0  0  0
 11 12  2  0  0  0  0
 11 43  1  0  0  0  0
 12 13  1  0  0  0  0
 12 30  1  0  0  0  0
 13 14  2  0  0  0  0
 13 15  1  0  0  0  0
 15 16  1  0  0  0  0
 15 44  1  0  0  0  0
 16 17  1  0  0  0  0
 16 24  1  0  0  0  0
 16 45  1  0  0  0  0
 17 18  2  0  0  0  0
 17 23  1  0  0  0  0
 18 19  1  0  0  0  0
 18 46  1  0  0  0  0
 19 20  2  0  0  0  0
 19 47  1  0  0  0  0
 20 21  1  0  0  0  0
 20 22  1  0  0  0  0
 22 23  2  0  0  0  0
 22 48  1  0  0  0  0
 23 49  1  0  0  0  0
 24 25  2  0  0  0  0
 24 29  1  0  0  0  0
 25 26  1  0  0  0  0
 26 27  1  0  0  0  0
 26 28  1  0  0  0  0
 27 50  1  0  0  0  0
 27 51  1  0  0  0  0
 27 52  1  0  0  0  0
 28 29  2  0  0  0  0
 28 53  1  0  0  0  0
 29 54  1  0  0  0  0
 30 31  2  0  0  0  0
 32 55  1  0  0  0  0
M  END
$$$$
