
 OpenBabel01122422413D

 42 45  0  0  0  0  0  0  0  0999 V2000
    0.9652    0.4824    0.2262 O   0  0  0  0  0  0  0  0  0  0  0  0
    2.1245    0.1706   -0.0129 C   0  0  0  0  0  0  0  0  0  0  0  0
    2.7451    0.3324   -1.2429 N   0  0  0  0  0  0  0  0  0  0  0  0
    2.1233    0.8241   -2.4170 C   0  0  0  0  0  0  0  0  0  0  0  0
    0.8890    1.4727   -2.4062 C   0  0  0  0  0  0  0  0  0  0  0  0
    0.3140    1.8355   -3.6078 C   0  0  0  0  0  0  0  0  0  0  0  0
    0.8951    1.6232   -4.7999 N   0  0  0  0  0  0  0  0  0  0  0  0
    2.1235    1.0637   -4.7956 C   0  0  0  0  0  0  0  0  0  0  0  0
    2.7921    0.8837   -6.0028 O   0  0  0  0  0  0  0  0  0  0  0  0
    2.4005    1.6701   -7.0661 C   0  0  0  0  0  0  0  0  0  0  0  0
    2.1347    3.0406   -6.9406 C   0  0  0  0  0  0  0  0  0  0  0  0
    1.7292    3.7796   -8.0513 C   0  0  0  0  0  0  0  0  0  0  0  0
    1.6389    3.1586   -9.2920 C   0  0  0  0  0  0  0  0  0  0  0  0
    1.2536    3.8747  -10.3559 F   0  0  0  0  0  0  0  0  0  0  0  0
    1.9477    1.8133   -9.4453 C   0  0  0  0  0  0  0  0  0  0  0  0
    2.3283    1.0760   -8.3281 C   0  0  0  0  0  0  0  0  0  0  0  0
    2.6268   -0.2228   -8.4812 F   0  0  0  0  0  0  0  0  0  0  0  0
    2.7687    0.6366   -3.6410 C   0  0  0  0  0  0  0  0  0  0  0  0
    2.9432   -0.4606    0.9912 C   0  0  0  0  0  0  0  0  0  0  0  0
    4.2754   -0.2487    1.2974 C   0  0  0  0  0  0  0  0  0  0  0  0
    4.4777   -0.9145    2.5124 C   0  0  0  0  0  0  0  0  0  0  0  0
    3.3769   -1.5152    2.9530 N   0  0  0  0  0  0  0  0  0  0  0  0
    2.4588   -1.3305    1.9630 N   0  0  0  0  0  0  0  0  0  0  0  0
    1.2366   -2.0586    1.9984 C   0  0  0  0  0  0  0  0  0  0  0  0
    0.7106   -2.4551    3.2299 C   0  0  0  0  0  0  0  0  0  0  0  0
   -0.4860   -3.1523    3.2331 C   0  0  0  0  0  0  0  0  0  0  0  0
   -1.1568   -3.5034    2.1146 N   0  0  0  0  0  0  0  0  0  0  0  0
   -0.6112   -3.1335    0.9379 C   0  0  0  0  0  0  0  0  0  0  0  0
    0.5692   -2.4172    0.8250 C   0  0  0  0  0  0  0  0  0  0  0  0
    3.6689   -0.0665   -1.3465 H   0  0  0  0  0  0  0  0  0  0  0  0
    0.3524    1.7146   -1.4974 H   0  0  0  0  0  0  0  0  0  0  0  0
   -0.6540    2.3274   -3.6381 H   0  0  0  0  0  0  0  0  0  0  0  0
    2.2051    3.5331   -5.9746 H   0  0  0  0  0  0  0  0  0  0  0  0
    1.4765    4.8307   -7.9507 H   0  0  0  0  0  0  0  0  0  0  0  0
    1.8869    1.3454  -10.4213 H   0  0  0  0  0  0  0  0  0  0  0  0
    3.7398    0.1613   -3.7159 H   0  0  0  0  0  0  0  0  0  0  0  0
    4.9764    0.3862    0.7744 H   0  0  0  0  0  0  0  0  0  0  0  0
    5.3744   -0.9610    3.1170 H   0  0  0  0  0  0  0  0  0  0  0  0
    1.1903   -2.1991    4.1692 H   0  0  0  0  0  0  0  0  0  0  0  0
   -0.9572   -3.4511    4.1652 H   0  0  0  0  0  0  0  0  0  0  0  0
   -1.1615   -3.4443    0.0537 H   0  0  0  0  0  0  0  0  0  0  0  0
    0.9452   -2.1916   -0.1648 H   0  0  0  0  0  0  0  0  0  0  0  0
  1  2  2  0  0  0  0
  2  3  1  0  0  0  0
  2 19  1  0  0  0  0
  3  4  1  0  0  0  0
  3 30  1  0  0  0  0
  4  5  2  0  0  0  0
  4 18  1  0  0  0  0
  5  6  1  0  0  0  0
  5 31  1  0  0  0  0
  6  7  2  0  0  0  0
  6 32  1  0  0  0  0
  7  8  1  0  0  0  0
  8  9  1  0  0  0  0
  8 18  2  0  0  0  0
  9 10  1  0  0  0  0
 10 11  2  0  0  0  0
 10 16  1  0  0  0  0
 11 12  1  0  0  0  0
 11 33  1  0  0  0  0
 12 13  2  0  0  0  0
 12 34  1  0  0  0  0
 13 14  1  0  0  0  0
 13 15  1  0  0  0  0
 15 16  2  0  0  0  0
 15 35  1  0  0  0  0
 16 17  1  0  0  0  0
 18 36  1  0  0  0  0
 19 20  2  0  0  0  0
 19 23  1  0  0  0  0
 20 21  1  0  0  0  0
 20 37  1  0  0  0  0
 21 22  2  0  0  0  0
 21 38  1  0  0  0  0
 22 23  1  0  0  0  0
 23 24  1  0  0  0  0
 24 25  2  0  0  0  0
 24 29  1  0  0  0  0
 25 26  1  0  0  0  0
 25 39  1  0  0  0  0
 26 27  2  0  0  0  0
 26 40  1  0  0  0  0
 27 28  1  0  0  0  0
 28 29  2  0  0  0  0
 28 41  1  0  0  0  0
 29 42  1  0  0  0  0
M  END
$$$$
