
 OpenBabel01122422353D

 45 48  0  0  0  0  0  0  0  0999 V2000
   -2.7832    2.0962    1.5050 C   0  0  0  0  0  0  0  0  0  0  0  0
   -1.4162    1.8966    1.0632 N   0  0  0  0  0  0  0  0  0  0  0  0
   -0.5383    2.9612    1.0109 C   0  0  0  0  0  0  0  0  0  0  0  0
    0.7544    2.7999    0.7073 C   0  0  0  0  0  0  0  0  0  0  0  0
    1.2647    1.4557    0.4381 C   0  0  0  0  0  0  0  0  0  0  0  0
    2.6262    1.2333    0.2129 C   0  0  0  0  0  0  0  0  0  0  0  0
    3.1340   -0.0482   -0.0601 C   0  0  0  0  0  0  0  0  0  0  0  0
    4.5204   -0.3033   -0.2439 N   0  0  0  0  0  0  0  0  0  0  0  0
    5.5283    0.6361   -0.1331 C   0  0  0  0  0  0  0  0  0  0  0  0
    5.3519    1.8307    0.1275 O   0  0  0  0  0  0  0  0  0  0  0  0
    6.9282    0.1748   -0.3474 C   0  0  0  0  0  0  0  0  0  0  0  0
    7.8940    1.1039   -0.1870 C   0  0  0  0  0  0  0  0  0  0  0  0
    9.2860    0.8081   -0.4063 C   0  0  0  0  0  0  0  0  0  0  0  0
    9.6395   -0.4180   -0.8129 C   0  0  0  0  0  0  0  0  0  0  0  0
   11.0387   -0.7781   -1.0471 C   0  0  0  0  0  0  0  0  0  0  0  0
   11.7995   -1.3116    0.0001 C   0  0  0  0  0  0  0  0  0  0  0  0
   13.1142   -1.7203   -0.2237 C   0  0  0  0  0  0  0  0  0  0  0  0
   13.6767   -1.5936   -1.4928 C   0  0  0  0  0  0  0  0  0  0  0  0
   12.9333   -1.0382   -2.5343 C   0  0  0  0  0  0  0  0  0  0  0  0
   11.6180   -0.6243   -2.3122 C   0  0  0  0  0  0  0  0  0  0  0  0
    8.6795   -1.3882   -0.9829 N   0  0  0  0  0  0  0  0  0  0  0  0
    7.3346   -1.1998   -0.7434 C   0  0  0  0  0  0  0  0  0  0  0  0
    6.5151   -2.1087   -0.8515 O   0  0  0  0  0  0  0  0  0  0  0  0
    2.2306   -1.1158   -0.1410 C   0  0  0  0  0  0  0  0  0  0  0  0
    0.8645   -0.9080    0.0987 C   0  0  0  0  0  0  0  0  0  0  0  0
    0.3918    0.3716    0.4069 C   0  0  0  0  0  0  0  0  0  0  0  0
   -1.0352    0.5873    0.7494 C   0  0  0  0  0  0  0  0  0  0  0  0
   -1.8047   -0.3696    0.7712 O   0  0  0  0  0  0  0  0  0  0  0  0
   -3.0103    3.1537    1.6663 H   0  0  0  0  0  0  0  0  0  0  0  0
   -2.9259    1.5482    2.4430 H   0  0  0  0  0  0  0  0  0  0  0  0
   -3.4685    1.6850    0.7575 H   0  0  0  0  0  0  0  0  0  0  0  0
   -0.9390    3.9495    1.2225 H   0  0  0  0  0  0  0  0  0  0  0  0
    1.4334    3.6452    0.6581 H   0  0  0  0  0  0  0  0  0  0  0  0
    3.2762    2.0964    0.2718 H   0  0  0  0  0  0  0  0  0  0  0  0
    4.7970   -1.2633   -0.4503 H   0  0  0  0  0  0  0  0  0  0  0  0
    7.6569    2.1264    0.1021 H   0  0  0  0  0  0  0  0  0  0  0  0
   10.0097    1.6008   -0.2416 H   0  0  0  0  0  0  0  0  0  0  0  0
   11.3669   -1.4212    0.9921 H   0  0  0  0  0  0  0  0  0  0  0  0
   13.6953   -2.1463    0.5901 H   0  0  0  0  0  0  0  0  0  0  0  0
   14.6955   -1.9293   -1.6702 H   0  0  0  0  0  0  0  0  0  0  0  0
   13.3765   -0.9367   -3.5219 H   0  0  0  0  0  0  0  0  0  0  0  0
   11.0480   -0.1942   -3.1329 H   0  0  0  0  0  0  0  0  0  0  0  0
    8.9645   -2.3140   -1.2779 H   0  0  0  0  0  0  0  0  0  0  0  0
    2.5617   -2.1261   -0.3706 H   0  0  0  0  0  0  0  0  0  0  0  0
    0.1658   -1.7414    0.0591 H   0  0  0  0  0  0  0  0  0  0  0  0
  1  2  1  0  0  0  0
  1 29  1  0  0  0  0
  1 30  1  0  0  0  0
  1 31  1  0  0  0  0
  2  3  1  0  0  0  0
  2 27  1  0  0  0  0
  3  4  2  0  0  0  0
  3 32  1  0  0  0  0
  4  5  1  0  0  0  0
  4 33  1  0  0  0  0
  5  6  2  0  0  0  0
  5 26  1  0  0  0  0
  6  7  1  0  0  0  0
  6 34  1  0  0  0  0
  7  8  1  0  0  0  0
  7 24  2  0  0  0  0
  8  9  1  0  0  0  0
  8 35  1  0  0  0  0
  9 10  2  0  0  0  0
  9 11  1  0  0  0  0
 11 12  2  0  0  0  0
 11 22  1  0  0  0  0
 12 13  1  0  0  0  0
 12 36  1  0  0  0  0
 13 14  2  0  0  0  0
 13 37  1  0  0  0  0
 14 15  1  0  0  0  0
 14 21  1  0  0  0  0
 15 16  2  0  0  0  0
 15 20  1  0  0  0  0
 16 17  1  0  0  0  0
 16 38  1  0  0  0  0
 17 18  2  0  0  0  0
 17 39  1  0  0  0  0
 18 19  1  0  0  0  0
 18 40  1  0  0  0  0
 19 20  2  0  0  0  0
 19 41  1  0  0  0  0
 20 42  1  0  0  0  0
 21 22  1  0  0  0  0
 21 43  1  0  0  0  0
 22 23  2  0  0  0  0
 24 25  1  0  0  0  0
 24 44  1  0  0  0  0
 25 26  2  0  0  0  0
 25 45  1  0  0  0  0
 26 27  1  0  0  0  0
 27 28  2  0  0  0  0
M  END
$$$$
