
 OpenBabel01122422413D

 46 49  0  0  0  0  0  0  0  0999 V2000
    6.5184    3.0887    2.0347 N   0  0  0  0  0  0  0  0  0  0  0  0
    6.1275    2.1879    1.4063 C   0  0  0  0  0  0  0  0  0  0  0  0
    5.5527    1.1686    0.6053 C   0  0  0  0  0  0  0  0  0  0  0  0
    4.3656    1.3244   -0.0225 C   0  0  0  0  0  0  0  0  0  0  0  0
    3.6355    2.5187    0.0509 N   0  0  0  0  0  0  0  0  0  0  0  0
    2.3432    2.7547   -0.4002 C   0  0  0  0  0  0  0  0  0  0  0  0
    1.5875    1.8820   -0.8124 O   0  0  0  0  0  0  0  0  0  0  0  0
    2.0154    4.1080   -0.3646 N   0  0  0  0  0  0  0  0  0  0  0  0
    0.7484    4.5559   -0.8254 C   0  0  0  0  0  0  0  0  0  0  0  0
   -0.4267    3.8636   -0.5220 C   0  0  0  0  0  0  0  0  0  0  0  0
   -1.6433    4.2233   -1.1140 C   0  0  0  0  0  0  0  0  0  0  0  0
   -1.7072    5.2798   -2.0291 C   0  0  0  0  0  0  0  0  0  0  0  0
   -2.9273    5.5890   -2.7663 C   0  0  0  0  0  0  0  0  0  0  0  0
   -4.1462    4.9503   -2.6546 C   0  0  0  0  0  0  0  0  0  0  0  0
   -4.9579    5.5477   -3.5807 N   0  0  0  0  0  0  0  0  0  0  0  0
   -4.2223    6.5056   -4.2150 C   0  0  0  0  0  0  0  0  0  0  0  0
   -2.9984    6.5624   -3.7425 N   0  0  0  0  0  0  0  0  0  0  0  0
   -0.5378    6.0195   -2.2661 C   0  0  0  0  0  0  0  0  0  0  0  0
    0.6775    5.6790   -1.6501 C   0  0  0  0  0  0  0  0  0  0  0  0
    3.8742    0.2155   -0.8233 C   0  0  0  0  0  0  0  0  0  0  0  0
    4.5435   -0.9369   -0.9221 C   0  0  0  0  0  0  0  0  0  0  0  0
    5.7611   -1.1316   -0.2990 N   0  0  0  0  0  0  0  0  0  0  0  0
    6.4573   -2.3786   -0.4259 C   0  0  0  0  0  0  0  0  0  0  0  0
    5.7824   -3.5943   -0.2422 C   0  0  0  0  0  0  0  0  0  0  0  0
    6.4817   -4.8042   -0.2808 C   0  0  0  0  0  0  0  0  0  0  0  0
    7.8489   -4.8151   -0.5526 C   0  0  0  0  0  0  0  0  0  0  0  0
    8.5185   -3.6176   -0.7900 C   0  0  0  0  0  0  0  0  0  0  0  0
    7.8286   -2.4049   -0.7158 C   0  0  0  0  0  0  0  0  0  0  0  0
    6.3263   -0.1170    0.4972 C   0  0  0  0  0  0  0  0  0  0  0  0
    7.3768   -0.2307    1.1307 O   0  0  0  0  0  0  0  0  0  0  0  0
    4.0156    3.2704    0.6158 H   0  0  0  0  0  0  0  0  0  0  0  0
    2.7871    4.7424   -0.5174 H   0  0  0  0  0  0  0  0  0  0  0  0
   -0.4092    3.0147    0.1575 H   0  0  0  0  0  0  0  0  0  0  0  0
   -2.5225    3.6332   -0.8730 H   0  0  0  0  0  0  0  0  0  0  0  0
   -4.5014    4.1405   -2.0343 H   0  0  0  0  0  0  0  0  0  0  0  0
   -5.9225    5.3148   -3.7741 H   0  0  0  0  0  0  0  0  0  0  0  0
   -4.6278    7.1215   -5.0073 H   0  0  0  0  0  0  0  0  0  0  0  0
   -0.5601    6.8487   -2.9718 H   0  0  0  0  0  0  0  0  0  0  0  0
    1.5650    6.2534   -1.8979 H   0  0  0  0  0  0  0  0  0  0  0  0
    2.9550    0.3018   -1.3909 H   0  0  0  0  0  0  0  0  0  0  0  0
    4.1652   -1.7408   -1.5493 H   0  0  0  0  0  0  0  0  0  0  0  0
    4.7242   -3.6114    0.0055 H   0  0  0  0  0  0  0  0  0  0  0  0
    5.9643   -5.7385   -0.0767 H   0  0  0  0  0  0  0  0  0  0  0  0
    8.3951   -5.7549   -0.5704 H   0  0  0  0  0  0  0  0  0  0  0  0
    9.5815   -3.6217   -1.0166 H   0  0  0  0  0  0  0  0  0  0  0  0
    8.3724   -1.4825   -0.9021 H   0  0  0  0  0  0  0  0  0  0  0  0
  1  2  3  0  0  0  0
  2  3  1  0  0  0  0
  3  4  2  0  0  0  0
  3 29  1  0  0  0  0
  4  5  1  0  0  0  0
  4 20  1  0  0  0  0
  5  6  1  0  0  0  0
  5 31  1  0  0  0  0
  6  7  2  0  0  0  0
  6  8  1  0  0  0  0
  8  9  1  0  0  0  0
  8 32  1  0  0  0  0
  9 10  2  0  0  0  0
  9 19  1  0  0  0  0
 10 11  1  0  0  0  0
 10 33  1  0  0  0  0
 11 12  2  0  0  0  0
 11 34  1  0  0  0  0
 12 13  1  0  0  0  0
 12 18  1  0  0  0  0
 13 14  2  0  0  0  0
 13 17  1  0  0  0  0
 14 15  1  0  0  0  0
 14 35  1  0  0  0  0
 15 16  1  0  0  0  0
 15 36  1  0  0  0  0
 16 17  2  0  0  0  0
 16 37  1  0  0  0  0
 18 19  2  0  0  0  0
 18 38  1  0  0  0  0
 19 39  1  0  0  0  0
 20 21  2  0  0  0  0
 20 40  1  0  0  0  0
 21 22  1  0  0  0  0
 21 41  1  0  0  0  0
 22 23  1  0  0  0  0
 22 29  1  0  0  0  0
 23 24  2  0  0  0  0
 23 28  1  0  0  0  0
 24 25  1  0  0  0  0
 24 42  1  0  0  0  0
 25 26  2  0  0  0  0
 25 43  1  0  0  0  0
 26 27  1  0  0  0  0
 26 44  1  0  0  0  0
 27 28  2  0  0  0  0
 27 45  1  0  0  0  0
 28 46  1  0  0  0  0
 29 30  2  0  0  0  0
M  END
$$$$
