
 OpenBabel01122422413D

 51 54  0  0  0  0  0  0  0  0999 V2000
    4.9026    7.3099   -0.4473 C   0  0  0  0  0  0  0  0  0  0  0  0
    5.0100    5.8941   -0.3967 O   0  0  0  0  0  0  0  0  0  0  0  0
    5.7060    5.2622   -1.3996 C   0  0  0  0  0  0  0  0  0  0  0  0
    6.2423    5.9573   -2.4988 C   0  0  0  0  0  0  0  0  0  0  0  0
    6.9907    5.2977   -3.4731 C   0  0  0  0  0  0  0  0  0  0  0  0
    7.2020    3.9318   -3.3693 C   0  0  0  0  0  0  0  0  0  0  0  0
    6.6410    3.2212   -2.3054 C   0  0  0  0  0  0  0  0  0  0  0  0
    5.8889    3.8601   -1.2985 C   0  0  0  0  0  0  0  0  0  0  0  0
    5.3154    3.0343   -0.2143 C   0  0  0  0  0  0  0  0  0  0  0  0
    4.1085    3.3196    0.4027 C   0  0  0  0  0  0  0  0  0  0  0  0
    3.8384    2.3576    1.3355 N   0  0  0  0  0  0  0  0  0  0  0  0
    4.8199    1.4084    1.3048 C   0  0  0  0  0  0  0  0  0  0  0  0
    5.7714    1.7945    0.3730 C   0  0  0  0  0  0  0  0  0  0  0  0
    7.0232    1.0847    0.1270 C   0  0  0  0  0  0  0  0  0  0  0  0
    8.0768    1.6918    0.0050 O   0  0  0  0  0  0  0  0  0  0  0  0
    6.8861   -0.2870    0.0337 N   0  0  0  0  0  0  0  0  0  0  0  0
    7.9933   -1.2115   -0.1034 C   0  0  0  0  0  0  0  0  0  0  0  0
    8.9919   -0.8358   -1.1684 C   0  0  0  0  0  0  0  0  0  0  0  0
   10.1158   -0.0708   -0.8192 C   0  0  0  0  0  0  0  0  0  0  0  0
   10.9967    0.3973   -1.7911 C   0  0  0  0  0  0  0  0  0  0  0  0
   10.7962    0.0642   -3.1306 C   0  0  0  0  0  0  0  0  0  0  0  0
   11.7500    0.5251   -4.1457 C   0  0  0  0  0  0  0  0  0  0  0  0
   12.8060   -0.2628   -4.4154 C   0  0  0  0  0  0  0  0  0  0  0  0
   13.7462    0.1110   -5.3429 N   0  0  0  0  0  0  0  0  0  0  0  0
   13.6960    1.2838   -6.0567 C   0  0  0  0  0  0  0  0  0  0  0  0
   14.5443    1.5968   -6.8837 O   0  0  0  0  0  0  0  0  0  0  0  0
   12.5356    2.1685   -5.7620 C   0  0  0  0  0  0  0  0  0  0  0  0
   11.6310    1.7904   -4.8535 C   0  0  0  0  0  0  0  0  0  0  0  0
    9.6876   -0.7164   -3.4906 C   0  0  0  0  0  0  0  0  0  0  0  0
    8.7861   -1.1548   -2.5128 C   0  0  0  0  0  0  0  0  0  0  0  0
    4.3529    7.6365    0.4406 H   0  0  0  0  0  0  0  0  0  0  0  0
    4.3310    7.6303   -1.3246 H   0  0  0  0  0  0  0  0  0  0  0  0
    5.8896    7.7833   -0.4197 H   0  0  0  0  0  0  0  0  0  0  0  0
    6.0993    7.0251   -2.6250 H   0  0  0  0  0  0  0  0  0  0  0  0
    7.4112    5.8545   -4.3063 H   0  0  0  0  0  0  0  0  0  0  0  0
    7.8003    3.4104   -4.1113 H   0  0  0  0  0  0  0  0  0  0  0  0
    6.8143    2.1489   -2.2795 H   0  0  0  0  0  0  0  0  0  0  0  0
    3.4217    4.1449    0.2726 H   0  0  0  0  0  0  0  0  0  0  0  0
    3.0396    2.3596    1.9566 H   0  0  0  0  0  0  0  0  0  0  0  0
    4.7886    0.5693    1.9860 H   0  0  0  0  0  0  0  0  0  0  0  0
    5.9851   -0.6745    0.2715 H   0  0  0  0  0  0  0  0  0  0  0  0
    7.5620   -2.1917   -0.3474 H   0  0  0  0  0  0  0  0  0  0  0  0
    8.4812   -1.3217    0.8713 H   0  0  0  0  0  0  0  0  0  0  0  0
   10.2598    0.2444    0.2152 H   0  0  0  0  0  0  0  0  0  0  0  0
   11.8235    1.0378   -1.4934 H   0  0  0  0  0  0  0  0  0  0  0  0
   12.9710   -1.2173   -3.9234 H   0  0  0  0  0  0  0  0  0  0  0  0
   14.5367   -0.4904   -5.5382 H   0  0  0  0  0  0  0  0  0  0  0  0
   12.4841    3.1017   -6.3040 H   0  0  0  0  0  0  0  0  0  0  0  0
   10.7821    2.4293   -4.6183 H   0  0  0  0  0  0  0  0  0  0  0  0
    9.5132   -0.9708   -4.5307 H   0  0  0  0  0  0  0  0  0  0  0  0
    7.9148   -1.7317   -2.8147 H   0  0  0  0  0  0  0  0  0  0  0  0
  1  2  1  0  0  0  0
  1 31  1  0  0  0  0
  1 32  1  0  0  0  0
  1 33  1  0  0  0  0
  2  3  1  0  0  0  0
  3  4  2  0  0  0  0
  3  8  1  0  0  0  0
  4  5  1  0  0  0  0
  4 34  1  0  0  0  0
  5  6  2  0  0  0  0
  5 35  1  0  0  0  0
  6  7  1  0  0  0  0
  6 36  1  0  0  0  0
  7  8  2  0  0  0  0
  7 37  1  0  0  0  0
  8  9  1  0  0  0  0
  9 10  2  0  0  0  0
  9 13  1  0  0  0  0
 10 11  1  0  0  0  0
 10 38  1  0  0  0  0
 11 12  1  0  0  0  0
 11 39  1  0  0  0  0
 12 13  2  0  0  0  0
 12 40  1  0  0  0  0
 13 14  1  0  0  0  0
 14 15  2  0  0  0  0
 14 16  1  0  0  0  0
 16 17  1  0  0  0  0
 16 41  1  0  0  0  0
 17 18  1  0  0  0  0
 17 42  1  0  0  0  0
 17 43  1  0  0  0  0
 18 19  2  0  0  0  0
 18 30  1  0  0  0  0
 19 20  1  0  0  0  0
 19 44  1  0  0  0  0
 20 21  2  0  0  0  0
 20 45  1  0  0  0  0
 21 22  1  0  0  0  0
 21 29  1  0  0  0  0
 22 23  2  0  0  0  0
 22 28  1  0  0  0  0
 23 24  1  0  0  0  0
 23 46  1  0  0  0  0
 24 25  1  0  0  0  0
 24 47  1  0  0  0  0
 25 26  2  0  0  0  0
 25 27  1  0  0  0  0
 27 28  2  0  0  0  0
 27 48  1  0  0  0  0
 28 49  1  0  0  0  0
 29 30  2  0  0  0  0
 29 50  1  0  0  0  0
 30 51  1  0  0  0  0
M  END
$$$$
