
 OpenBabel01122422413D

 41 44  0  0  0  0  0  0  0  0999 V2000
    1.1111    0.6747    0.5129 O   0  0  0  0  0  0  0  0  0  0  0  0
    2.2581    0.3914    0.1777 C   0  0  0  0  0  0  0  0  0  0  0  0
    2.8480    0.7558   -1.0343 N   0  0  0  0  0  0  0  0  0  0  0  0
    2.1912    1.5384   -2.0153 C   0  0  0  0  0  0  0  0  0  0  0  0
    1.1117    2.3664   -1.6831 C   0  0  0  0  0  0  0  0  0  0  0  0
    0.3574    2.9959   -2.6660 C   0  0  0  0  0  0  0  0  0  0  0  0
    0.6942    2.8252   -3.9976 C   0  0  0  0  0  0  0  0  0  0  0  0
   -0.1421    3.3453   -4.9067 F   0  0  0  0  0  0  0  0  0  0  0  0
    1.8336    2.1061   -4.3626 C   0  0  0  0  0  0  0  0  0  0  0  0
    2.2029    1.9073   -5.7926 C   0  0  0  0  0  0  0  0  0  0  0  0
    2.8173    0.8831   -6.0843 O   0  0  0  0  0  0  0  0  0  0  0  0
    1.8387    2.9013   -6.8057 C   0  0  0  0  0  0  0  0  0  0  0  0
    1.7650    4.2750   -6.6314 C   0  0  0  0  0  0  0  0  0  0  0  0
    1.3576    4.8451   -7.8071 N   0  0  0  0  0  0  0  0  0  0  0  0
    1.2094    3.8832   -8.7759 C   0  0  0  0  0  0  0  0  0  0  0  0
    0.8318    4.0129  -10.1181 C   0  0  0  0  0  0  0  0  0  0  0  0
    0.7558    2.8480  -10.8857 C   0  0  0  0  0  0  0  0  0  0  0  0
    1.0393    1.6048  -10.3272 C   0  0  0  0  0  0  0  0  0  0  0  0
    1.4136    1.4937   -8.9817 C   0  0  0  0  0  0  0  0  0  0  0  0
    1.5093    2.6546   -8.1838 C   0  0  0  0  0  0  0  0  0  0  0  0
    2.5912    1.4616   -3.3560 C   0  0  0  0  0  0  0  0  0  0  0  0
    3.0767   -0.4288    1.1079 C   0  0  0  0  0  0  0  0  0  0  0  0
    2.4899   -0.8937    2.2654 C   0  0  0  0  0  0  0  0  0  0  0  0
    1.2037   -0.7229    2.5959 F   0  0  0  0  0  0  0  0  0  0  0  0
    3.3257   -1.5684    3.1163 C   0  0  0  0  0  0  0  0  0  0  0  0
    2.8506   -2.0500    4.3075 O   0  0  0  0  0  0  0  0  0  0  0  0
    4.6245   -1.7894    2.8712 N   0  0  0  0  0  0  0  0  0  0  0  0
    5.0891   -1.3075    1.7070 C   0  0  0  0  0  0  0  0  0  0  0  0
    4.3811   -0.6309    0.7838 N   0  0  0  0  0  0  0  0  0  0  0  0
    3.7173    0.2875   -1.2726 H   0  0  0  0  0  0  0  0  0  0  0  0
    0.8135    2.5268   -0.6515 H   0  0  0  0  0  0  0  0  0  0  0  0
   -0.5134    3.5838   -2.3946 H   0  0  0  0  0  0  0  0  0  0  0  0
    1.9347    4.8962   -5.7625 H   0  0  0  0  0  0  0  0  0  0  0  0
    1.1891    5.8312   -7.9511 H   0  0  0  0  0  0  0  0  0  0  0  0
    0.6059    4.9803  -10.5543 H   0  0  0  0  0  0  0  0  0  0  0  0
    0.4701    2.9152  -11.9329 H   0  0  0  0  0  0  0  0  0  0  0  0
    0.9711    0.7093  -10.9397 H   0  0  0  0  0  0  0  0  0  0  0  0
    1.6306    0.5173   -8.5563 H   0  0  0  0  0  0  0  0  0  0  0  0
    3.4479    0.8549   -3.6432 H   0  0  0  0  0  0  0  0  0  0  0  0
    1.9105   -1.7981    4.3621 H   0  0  0  0  0  0  0  0  0  0  0  0
    6.1419   -1.4782    1.5021 H   0  0  0  0  0  0  0  0  0  0  0  0
  1  2  2  0  0  0  0
  2  3  1  0  0  0  0
  2 22  1  0  0  0  0
  3  4  1  0  0  0  0
  3 30  1  0  0  0  0
  4  5  2  0  0  0  0
  4 21  1  0  0  0  0
  5  6  1  0  0  0  0
  5 31  1  0  0  0  0
  6  7  2  0  0  0  0
  6 32  1  0  0  0  0
  7  8  1  0  0  0  0
  7  9  1  0  0  0  0
  9 10  1  0  0  0  0
  9 21  2  0  0  0  0
 10 11  2  0  0  0  0
 10 12  1  0  0  0  0
 12 13  2  0  0  0  0
 12 20  1  0  0  0  0
 13 14  1  0  0  0  0
 13 33  1  0  0  0  0
 14 15  1  0  0  0  0
 14 34  1  0  0  0  0
 15 16  2  0  0  0  0
 15 20  1  0  0  0  0
 16 17  1  0  0  0  0
 16 35  1  0  0  0  0
 17 18  2  0  0  0  0
 17 36  1  0  0  0  0
 18 19  1  0  0  0  0
 18 37  1  0  0  0  0
 19 20  2  0  0  0  0
 19 38  1  0  0  0  0
 21 39  1  0  0  0  0
 22 23  2  0  0  0  0
 22 29  1  0  0  0  0
 23 24  1  0  0  0  0
 23 25  1  0  0  0  0
 25 26  1  0  0  0  0
 25 27  2  0  0  0  0
 26 40  1  0  0  0  0
 27 28  1  0  0  0  0
 28 29  2  0  0  0  0
 28 41  1  0  0  0  0
M  END
$$$$
