
 OpenBabel01122422413D

 42 45  0  0  0  0  0  0  0  0999 V2000
    0.8966    0.1566   -0.1016 O   0  0  0  0  0  0  0  0  0  0  0  0
    2.1136    0.0084    0.0051 C   0  0  0  0  0  0  0  0  0  0  0  0
    2.8715    0.6945    0.9316 N   0  0  0  0  0  0  0  0  0  0  0  0
    2.2532    1.7335    1.7181 C   0  0  0  0  0  0  0  0  0  0  0  0
    2.8664    1.9396    3.0787 C   0  0  0  0  0  0  0  0  0  0  0  0
    2.7965    3.2061    3.6743 C   0  0  0  0  0  0  0  0  0  0  0  0
    3.1942    3.3897    4.9966 C   0  0  0  0  0  0  0  0  0  0  0  0
    3.6519    2.3070    5.7505 C   0  0  0  0  0  0  0  0  0  0  0  0
    3.7296    1.0302    5.1772 C   0  0  0  0  0  0  0  0  0  0  0  0
    4.1512   -0.0906    5.9498 N   0  0  0  0  0  0  0  0  0  0  0  0
    4.3317   -1.3875    5.5159 C   0  0  0  0  0  0  0  0  0  0  0  0
    4.7379   -2.1088    6.6121 C   0  0  0  0  0  0  0  0  0  0  0  0
    4.8058   -1.3123    7.7165 N   0  0  0  0  0  0  0  0  0  0  0  0
    4.4464   -0.1183    7.2971 C   0  0  0  0  0  0  0  0  0  0  0  0
    3.3471    0.8594    3.8371 C   0  0  0  0  0  0  0  0  0  0  0  0
    2.8447   -0.8954   -0.8778 C   0  0  0  0  0  0  0  0  0  0  0  0
    4.1655   -1.1205   -0.7798 N   0  0  0  0  0  0  0  0  0  0  0  0
    4.4693   -2.0063   -1.8068 O   0  0  0  0  0  0  0  0  0  0  0  0
    3.3418   -2.2944   -2.5195 C   0  0  0  0  0  0  0  0  0  0  0  0
    3.4928   -3.1434   -3.6894 C   0  0  0  0  0  0  0  0  0  0  0  0
    4.4793   -4.1328   -3.7713 C   0  0  0  0  0  0  0  0  0  0  0  0
    5.3018   -4.3626   -2.7374 F   0  0  0  0  0  0  0  0  0  0  0  0
    4.6292   -4.9213   -4.9105 C   0  0  0  0  0  0  0  0  0  0  0  0
    3.7801   -4.7219   -5.9900 C   0  0  0  0  0  0  0  0  0  0  0  0
    3.9275   -5.4667   -7.0923 F   0  0  0  0  0  0  0  0  0  0  0  0
    2.7819   -3.7619   -5.9433 C   0  0  0  0  0  0  0  0  0  0  0  0
    2.6440   -2.9864   -4.7952 C   0  0  0  0  0  0  0  0  0  0  0  0
    1.6747   -2.0583   -4.7813 F   0  0  0  0  0  0  0  0  0  0  0  0
    2.2859   -1.6285   -1.9520 C   0  0  0  0  0  0  0  0  0  0  0  0
    3.8824    0.6432    0.8455 H   0  0  0  0  0  0  0  0  0  0  0  0
    1.1936    1.4969    1.8707 H   0  0  0  0  0  0  0  0  0  0  0  0
    2.3083    2.6524    1.1237 H   0  0  0  0  0  0  0  0  0  0  0  0
    2.3979    4.0542    3.1202 H   0  0  0  0  0  0  0  0  0  0  0  0
    3.1200    4.3749    5.4516 H   0  0  0  0  0  0  0  0  0  0  0  0
    3.9280    2.5012    6.7823 H   0  0  0  0  0  0  0  0  0  0  0  0
    4.1751   -1.7013    4.4960 H   0  0  0  0  0  0  0  0  0  0  0  0
    4.9813   -3.1623    6.6581 H   0  0  0  0  0  0  0  0  0  0  0  0
    4.3710    0.7478    7.9384 H   0  0  0  0  0  0  0  0  0  0  0  0
    3.3647   -0.1198    3.3676 H   0  0  0  0  0  0  0  0  0  0  0  0
    5.4022   -5.6811   -4.9522 H   0  0  0  0  0  0  0  0  0  0  0  0
    2.1216   -3.6111   -6.7901 H   0  0  0  0  0  0  0  0  0  0  0  0
    1.2531   -1.6305   -2.2707 H   0  0  0  0  0  0  0  0  0  0  0  0
  1  2  2  0  0  0  0
  2  3  1  0  0  0  0
  2 16  1  0  0  0  0
  3  4  1  0  0  0  0
  3 30  1  0  0  0  0
  4  5  1  0  0  0  0
  4 31  1  0  0  0  0
  4 32  1  0  0  0  0
  5  6  2  0  0  0  0
  5 15  1  0  0  0  0
  6  7  1  0  0  0  0
  6 33  1  0  0  0  0
  7  8  2  0  0  0  0
  7 34  1  0  0  0  0
  8  9  1  0  0  0  0
  8 35  1  0  0  0  0
  9 10  1  0  0  0  0
  9 15  2  0  0  0  0
 10 11  1  0  0  0  0
 10 14  1  0  0  0  0
 11 12  2  0  0  0  0
 11 36  1  0  0  0  0
 12 13  1  0  0  0  0
 12 37  1  0  0  0  0
 13 14  2  0  0  0  0
 14 38  1  0  0  0  0
 15 39  1  0  0  0  0
 16 17  2  0  0  0  0
 16 29  1  0  0  0  0
 17 18  1  0  0  0  0
 18 19  1  0  0  0  0
 19 20  1  0  0  0  0
 19 29  2  0  0  0  0
 20 21  2  0  0  0  0
 20 27  1  0  0  0  0
 21 22  1  0  0  0  0
 21 23  1  0  0  0  0
 23 24  2  0  0  0  0
 23 40  1  0  0  0  0
 24 25  1  0  0  0  0
 24 26  1  0  0  0  0
 26 27  2  0  0  0  0
 26 41  1  0  0  0  0
 27 28  1  0  0  0  0
 29 42  1  0  0  0  0
M  END
$$$$
