
 OpenBabel01122422413D

 45 48  0  0  0  0  0  0  0  0999 V2000
    2.7649    0.8494    0.7522 O   0  0  0  0  0  0  0  0  0  0  0  0
    2.3298   -0.1289    0.1580 C   0  0  0  0  0  0  0  0  0  0  0  0
    0.9880   -0.4559    0.0747 N   0  0  0  0  0  0  0  0  0  0  0  0
   -0.0696    0.2796    0.6527 C   0  0  0  0  0  0  0  0  0  0  0  0
    0.0514    1.5999    1.0982 C   0  0  0  0  0  0  0  0  0  0  0  0
   -1.0236    2.2574    1.7088 C   0  0  0  0  0  0  0  0  0  0  0  0
   -2.2330    1.5840    1.9013 C   0  0  0  0  0  0  0  0  0  0  0  0
   -3.3105    2.2290    2.5516 N   0  0  0  0  0  0  0  0  0  0  0  0
   -3.5288    3.5873    2.6425 C   0  0  0  0  0  0  0  0  0  0  0  0
   -4.7169    3.7337    3.3189 C   0  0  0  0  0  0  0  0  0  0  0  0
   -5.2120    2.5193    3.6989 N   0  0  0  0  0  0  0  0  0  0  0  0
   -4.3521    1.6398    3.2338 C   0  0  0  0  0  0  0  0  0  0  0  0
   -2.3566    0.2727    1.4379 C   0  0  0  0  0  0  0  0  0  0  0  0
   -3.5109   -0.3997    1.5441 F   0  0  0  0  0  0  0  0  0  0  0  0
   -1.2977   -0.3676    0.7969 C   0  0  0  0  0  0  0  0  0  0  0  0
    3.1224   -1.0703   -0.4854 N   0  0  0  0  0  0  0  0  0  0  0  0
    4.5015   -1.0952   -0.5379 C   0  0  0  0  0  0  0  0  0  0  0  0
    5.3163   -0.2187    0.0702 C   0  0  0  0  0  0  0  0  0  0  0  0
    6.7051   -0.2140   -0.0696 N   0  0  0  0  0  0  0  0  0  0  0  0
    7.4948    0.8053    0.5881 C   0  0  0  0  0  0  0  0  0  0  0  0
    8.6861    1.2912    0.0278 C   0  0  0  0  0  0  0  0  0  0  0  0
    9.4265    2.3020    0.6523 C   0  0  0  0  0  0  0  0  0  0  0  0
    8.9913    2.8502    1.8534 C   0  0  0  0  0  0  0  0  0  0  0  0
    7.8114    2.3929    2.4289 C   0  0  0  0  0  0  0  0  0  0  0  0
    7.0702    1.3848    1.8002 C   0  0  0  0  0  0  0  0  0  0  0  0
    7.3282   -1.1795   -0.8883 C   0  0  0  0  0  0  0  0  0  0  0  0
    8.5296   -1.3046   -1.1156 O   0  0  0  0  0  0  0  0  0  0  0  0
    6.4270   -2.1950   -1.5028 C   0  0  0  0  0  0  0  0  0  0  0  0
    5.1035   -2.1494   -1.3272 C   0  0  0  0  0  0  0  0  0  0  0  0
    0.7675   -1.3900   -0.2361 H   0  0  0  0  0  0  0  0  0  0  0  0
    0.9768    2.1582    0.9865 H   0  0  0  0  0  0  0  0  0  0  0  0
   -0.8614    3.2700    2.0699 H   0  0  0  0  0  0  0  0  0  0  0  0
   -2.8836    4.3183    2.1786 H   0  0  0  0  0  0  0  0  0  0  0  0
   -5.2432    4.6519    3.5448 H   0  0  0  0  0  0  0  0  0  0  0  0
   -4.4175    0.5720    3.3957 H   0  0  0  0  0  0  0  0  0  0  0  0
   -1.4532   -1.3802    0.4380 H   0  0  0  0  0  0  0  0  0  0  0  0
    2.6384   -1.7487   -1.0519 H   0  0  0  0  0  0  0  0  0  0  0  0
    4.9145    0.5909    0.6633 H   0  0  0  0  0  0  0  0  0  0  0  0
    9.0480    0.9259   -0.9293 H   0  0  0  0  0  0  0  0  0  0  0  0
   10.3411    2.6618    0.1887 H   0  0  0  0  0  0  0  0  0  0  0  0
    9.5694    3.6319    2.3388 H   0  0  0  0  0  0  0  0  0  0  0  0
    7.4652    2.8131    3.3691 H   0  0  0  0  0  0  0  0  0  0  0  0
    6.1721    1.0406    2.3072 H   0  0  0  0  0  0  0  0  0  0  0  0
    6.9122   -2.9723   -2.0800 H   0  0  0  0  0  0  0  0  0  0  0  0
    4.4780   -2.9182   -1.7660 H   0  0  0  0  0  0  0  0  0  0  0  0
  1  2  2  0  0  0  0
  2  3  1  0  0  0  0
  2 16  1  0  0  0  0
  3  4  1  0  0  0  0
  3 30  1  0  0  0  0
  4  5  2  0  0  0  0
  4 15  1  0  0  0  0
  5  6  1  0  0  0  0
  5 31  1  0  0  0  0
  6  7  2  0  0  0  0
  6 32  1  0  0  0  0
  7  8  1  0  0  0  0
  7 13  1  0  0  0  0
  8  9  1  0  0  0  0
  8 12  1  0  0  0  0
  9 10  2  0  0  0  0
  9 33  1  0  0  0  0
 10 11  1  0  0  0  0
 10 34  1  0  0  0  0
 11 12  2  0  0  0  0
 12 35  1  0  0  0  0
 13 14  1  0  0  0  0
 13 15  2  0  0  0  0
 15 36  1  0  0  0  0
 16 17  1  0  0  0  0
 16 37  1  0  0  0  0
 17 18  2  0  0  0  0
 17 29  1  0  0  0  0
 18 19  1  0  0  0  0
 18 38  1  0  0  0  0
 19 20  1  0  0  0  0
 19 26  1  0  0  0  0
 20 21  2  0  0  0  0
 20 25  1  0  0  0  0
 21 22  1  0  0  0  0
 21 39  1  0  0  0  0
 22 23  2  0  0  0  0
 22 40  1  0  0  0  0
 23 24  1  0  0  0  0
 23 41  1  0  0  0  0
 24 25  2  0  0  0  0
 24 42  1  0  0  0  0
 25 43  1  0  0  0  0
 26 27  2  0  0  0  0
 26 28  1  0  0  0  0
 28 29  2  0  0  0  0
 28 44  1  0  0  0  0
 29 45  1  0  0  0  0
M  END
$$$$
