
 OpenBabel01122422413D

 42 45  0  0  0  0  0  0  0  0999 V2000
    1.0482    0.4583    0.2581 O   0  0  0  0  0  0  0  0  0  0  0  0
    2.2060    0.0819    0.1220 C   0  0  0  0  0  0  0  0  0  0  0  0
    2.8812   -0.7097    1.0204 N   0  0  0  0  0  0  0  0  0  0  0  0
    2.2755   -1.2788    2.1413 C   0  0  0  0  0  0  0  0  0  0  0  0
    1.0630   -0.9535    2.7006 C   0  0  0  0  0  0  0  0  0  0  0  0
    0.8394   -1.7131    3.7955 O   0  0  0  0  0  0  0  0  0  0  0  0
    1.9043   -2.5601    3.9901 N   0  0  0  0  0  0  0  0  0  0  0  0
    2.7753   -2.3145    2.9972 C   0  0  0  0  0  0  0  0  0  0  0  0
    4.0282   -3.0674    2.9048 C   0  0  0  0  0  0  0  0  0  0  0  0
    4.5876   -3.4097    1.6652 C   0  0  0  0  0  0  0  0  0  0  0  0
    5.8176   -4.0703    1.5983 C   0  0  0  0  0  0  0  0  0  0  0  0
    6.4816   -4.4265    2.7696 C   0  0  0  0  0  0  0  0  0  0  0  0
    5.9125   -4.1387    4.0076 C   0  0  0  0  0  0  0  0  0  0  0  0
    4.6927   -3.4635    4.0754 C   0  0  0  0  0  0  0  0  0  0  0  0
    2.9770    0.4774   -1.1072 C   0  0  0  0  0  0  0  0  0  0  0  0
    2.4700    1.5155   -1.7918 C   0  0  0  0  0  0  0  0  0  0  0  0
    3.0241    1.9741   -2.9864 N   0  0  0  0  0  0  0  0  0  0  0  0
    2.3863    3.0355   -3.7046 C   0  0  0  0  0  0  0  0  0  0  0  0
    0.9945    3.0300   -3.8746 C   0  0  0  0  0  0  0  0  0  0  0  0
    0.3771    4.0579   -4.5764 C   0  0  0  0  0  0  0  0  0  0  0  0
   -0.9465    4.0151   -4.7718 F   0  0  0  0  0  0  0  0  0  0  0  0
    1.1115    5.1196   -5.0851 C   0  0  0  0  0  0  0  0  0  0  0  0
    2.4931    5.1466   -4.9087 C   0  0  0  0  0  0  0  0  0  0  0  0
    3.1310    4.0991   -4.2365 C   0  0  0  0  0  0  0  0  0  0  0  0
    4.1578    1.3546   -3.5445 C   0  0  0  0  0  0  0  0  0  0  0  0
    4.7157    1.6535   -4.5976 O   0  0  0  0  0  0  0  0  0  0  0  0
    4.6785    0.1757   -2.7905 C   0  0  0  0  0  0  0  0  0  0  0  0
    4.1102   -0.2322   -1.6499 C   0  0  0  0  0  0  0  0  0  0  0  0
    3.8443   -0.9605    0.8571 H   0  0  0  0  0  0  0  0  0  0  0  0
    0.2873   -0.2346    2.4687 H   0  0  0  0  0  0  0  0  0  0  0  0
    4.0667   -3.1936    0.7375 H   0  0  0  0  0  0  0  0  0  0  0  0
    6.2503   -4.3215    0.6331 H   0  0  0  0  0  0  0  0  0  0  0  0
    7.4359   -4.9439    2.7191 H   0  0  0  0  0  0  0  0  0  0  0  0
    6.4158   -4.4380    4.9238 H   0  0  0  0  0  0  0  0  0  0  0  0
    4.2619   -3.2475    5.0516 H   0  0  0  0  0  0  0  0  0  0  0  0
    1.6099    2.0703   -1.4267 H   0  0  0  0  0  0  0  0  0  0  0  0
    0.3839    2.2107   -3.5125 H   0  0  0  0  0  0  0  0  0  0  0  0
    0.6031    5.9141   -5.6238 H   0  0  0  0  0  0  0  0  0  0  0  0
    3.0767    5.9786   -5.2948 H   0  0  0  0  0  0  0  0  0  0  0  0
    4.2097    4.1399   -4.1025 H   0  0  0  0  0  0  0  0  0  0  0  0
    5.5157   -0.3427   -3.2487 H   0  0  0  0  0  0  0  0  0  0  0  0
    4.4865   -1.1232   -1.1628 H   0  0  0  0  0  0  0  0  0  0  0  0
  1  2  2  0  0  0  0
  2  3  1  0  0  0  0
  2 15  1  0  0  0  0
  3  4  1  0  0  0  0
  3 29  1  0  0  0  0
  4  5  2  0  0  0  0
  4  8  1  0  0  0  0
  5  6  1  0  0  0  0
  5 30  1  0  0  0  0
  6  7  1  0  0  0  0
  7  8  2  0  0  0  0
  8  9  1  0  0  0  0
  9 10  2  0  0  0  0
  9 14  1  0  0  0  0
 10 11  1  0  0  0  0
 10 31  1  0  0  0  0
 11 12  2  0  0  0  0
 11 32  1  0  0  0  0
 12 13  1  0  0  0  0
 12 33  1  0  0  0  0
 13 14  2  0  0  0  0
 13 34  1  0  0  0  0
 14 35  1  0  0  0  0
 15 16  2  0  0  0  0
 15 28  1  0  0  0  0
 16 17  1  0  0  0  0
 16 36  1  0  0  0  0
 17 18  1  0  0  0  0
 17 25  1  0  0  0  0
 18 19  2  0  0  0  0
 18 24  1  0  0  0  0
 19 20  1  0  0  0  0
 19 37  1  0  0  0  0
 20 21  1  0  0  0  0
 20 22  2  0  0  0  0
 22 23  1  0  0  0  0
 22 38  1  0  0  0  0
 23 24  2  0  0  0  0
 23 39  1  0  0  0  0
 24 40  1  0  0  0  0
 25 26  2  0  0  0  0
 25 27  1  0  0  0  0
 27 28  2  0  0  0  0
 27 41  1  0  0  0  0
 28 42  1  0  0  0  0
M  END
$$$$
