
 OpenBabel01122422423D

 53 56  0  0  0  0  0  0  0  0999 V2000
    4.0397    1.0725   -5.5834 C   0  0  0  0  0  0  0  0  0  0  0  0
    5.0064    0.9137   -4.5359 N   0  0  0  0  0  0  0  0  0  0  0  0
    5.2034    1.7448   -3.4544 C   0  0  0  0  0  0  0  0  0  0  0  0
    6.1711    1.2313   -2.6767 C   0  0  0  0  0  0  0  0  0  0  0  0
    6.6507    1.7776   -1.3767 C   0  0  0  0  0  0  0  0  0  0  0  0
    7.2087    1.0726   -0.5396 O   0  0  0  0  0  0  0  0  0  0  0  0
    6.4429    3.1206   -1.1703 N   0  0  0  0  0  0  0  0  0  0  0  0
    6.9295    3.7288    0.0456 C   0  0  0  0  0  0  0  0  0  0  0  0
    6.5852    5.1873    0.1161 C   0  0  0  0  0  0  0  0  0  0  0  0
    5.3558    5.6068    0.6320 C   0  0  0  0  0  0  0  0  0  0  0  0
    5.0385    6.9672    0.6893 C   0  0  0  0  0  0  0  0  0  0  0  0
    5.9382    7.9508    0.2430 C   0  0  0  0  0  0  0  0  0  0  0  0
    5.5999    9.3904    0.2945 C   0  0  0  0  0  0  0  0  0  0  0  0
    4.7733    9.9228    1.2961 C   0  0  0  0  0  0  0  0  0  0  0  0
    4.4371   11.2844    1.3217 C   0  0  0  0  0  0  0  0  0  0  0  0
    4.9381   12.1829    0.3676 C   0  0  0  0  0  0  0  0  0  0  0  0
    4.6053   13.6262    0.3960 C   0  0  0  0  0  0  0  0  0  0  0  0
    4.3572   14.3037    1.6035 C   0  0  0  0  0  0  0  0  0  0  0  0
    4.0668   15.6711    1.6265 C   0  0  0  0  0  0  0  0  0  0  0  0
    4.0312   16.3972    0.4407 C   0  0  0  0  0  0  0  0  0  0  0  0
    4.2685   15.7542   -0.7685 C   0  0  0  0  0  0  0  0  0  0  0  0
    4.5403   14.3842   -0.7890 C   0  0  0  0  0  0  0  0  0  0  0  0
    5.7815   11.6512   -0.6187 C   0  0  0  0  0  0  0  0  0  0  0  0
    6.0895   10.2874   -0.6658 C   0  0  0  0  0  0  0  0  0  0  0  0
    7.1713    7.5079   -0.2685 C   0  0  0  0  0  0  0  0  0  0  0  0
    7.4860    6.1493   -0.3469 C   0  0  0  0  0  0  0  0  0  0  0  0
    6.6085    0.0443   -3.2532 N   0  0  0  0  0  0  0  0  0  0  0  0
    7.6089   -0.8762   -2.7895 C   0  0  0  0  0  0  0  0  0  0  0  0
    5.8760   -0.1904   -4.4380 C   0  0  0  0  0  0  0  0  0  0  0  0
    5.9661   -1.1353   -5.2023 O   0  0  0  0  0  0  0  0  0  0  0  0
    3.4678    1.9944   -5.4520 H   0  0  0  0  0  0  0  0  0  0  0  0
    3.3656    0.2104   -5.5770 H   0  0  0  0  0  0  0  0  0  0  0  0
    4.5627    1.0914   -6.5442 H   0  0  0  0  0  0  0  0  0  0  0  0
    4.6107    2.6354   -3.3145 H   0  0  0  0  0  0  0  0  0  0  0  0
    6.0914    3.7204   -1.9042 H   0  0  0  0  0  0  0  0  0  0  0  0
    8.0164    3.5889    0.0935 H   0  0  0  0  0  0  0  0  0  0  0  0
    6.5051    3.1941    0.9041 H   0  0  0  0  0  0  0  0  0  0  0  0
    4.6355    4.8788    0.9995 H   0  0  0  0  0  0  0  0  0  0  0  0
    4.0638    7.2473    1.0833 H   0  0  0  0  0  0  0  0  0  0  0  0
    4.3792    9.2887    2.0857 H   0  0  0  0  0  0  0  0  0  0  0  0
    3.7656   11.6250    2.1067 H   0  0  0  0  0  0  0  0  0  0  0  0
    4.4039   13.7773    2.5541 H   0  0  0  0  0  0  0  0  0  0  0  0
    3.8786   16.1674    2.5748 H   0  0  0  0  0  0  0  0  0  0  0  0
    3.8191   17.4625    0.4588 H   0  0  0  0  0  0  0  0  0  0  0  0
    4.2434   16.3134   -1.6998 H   0  0  0  0  0  0  0  0  0  0  0  0
    4.6981   13.9129   -1.7566 H   0  0  0  0  0  0  0  0  0  0  0  0
    6.2276   12.2945   -1.3738 H   0  0  0  0  0  0  0  0  0  0  0  0
    6.7206    9.9413   -1.4809 H   0  0  0  0  0  0  0  0  0  0  0  0
    7.9194    8.2222   -0.6063 H   0  0  0  0  0  0  0  0  0  0  0  0
    8.4484    5.8521   -0.7584 H   0  0  0  0  0  0  0  0  0  0  0  0
    8.1191   -0.5397   -1.8897 H   0  0  0  0  0  0  0  0  0  0  0  0
    8.3487   -1.0095   -3.5835 H   0  0  0  0  0  0  0  0  0  0  0  0
    7.1337   -1.8445   -2.6043 H   0  0  0  0  0  0  0  0  0  0  0  0
  1  2  1  0  0  0  0
  1 31  1  0  0  0  0
  1 32  1  0  0  0  0
  1 33  1  0  0  0  0
  2  3  1  0  0  0  0
  2 29  1  0  0  0  0
  3  4  2  0  0  0  0
  3 34  1  0  0  0  0
  4  5  1  0  0  0  0
  4 27  1  0  0  0  0
  5  6  2  0  0  0  0
  5  7  1  0  0  0  0
  7  8  1  0  0  0  0
  7 35  1  0  0  0  0
  8  9  1  0  0  0  0
  8 36  1  0  0  0  0
  8 37  1  0  0  0  0
  9 10  2  0  0  0  0
  9 26  1  0  0  0  0
 10 11  1  0  0  0  0
 10 38  1  0  0  0  0
 11 12  2  0  0  0  0
 11 39  1  0  0  0  0
 12 13  1  0  0  0  0
 12 25  1  0  0  0  0
 13 14  2  0  0  0  0
 13 24  1  0  0  0  0
 14 15  1  0  0  0  0
 14 40  1  0  0  0  0
 15 16  2  0  0  0  0
 15 41  1  0  0  0  0
 16 17  1  0  0  0  0
 16 23  1  0  0  0  0
 17 18  2  0  0  0  0
 17 22  1  0  0  0  0
 18 19  1  0  0  0  0
 18 42  1  0  0  0  0
 19 20  2  0  0  0  0
 19 43  1  0  0  0  0
 20 21  1  0  0  0  0
 20 44  1  0  0  0  0
 21 22  2  0  0  0  0
 21 45  1  0  0  0  0
 22 46  1  0  0  0  0
 23 24  2  0  0  0  0
 23 47  1  0  0  0  0
 24 48  1  0  0  0  0
 25 26  2  0  0  0  0
 25 49  1  0  0  0  0
 26 50  1  0  0  0  0
 27 28  1  0  0  0  0
 27 29  1  0  0  0  0
 28 51  1  0  0  0  0
 28 52  1  0  0  0  0
 28 53  1  0  0  0  0
 29 30  2  0  0  0  0
M  END
$$$$
