
 OpenBabel01122422423D

 43 46  0  0  0  0  0  0  0  0999 V2000
    1.0500    0.0990   -0.0829 O   0  0  0  0  0  0  0  0  0  0  0  0
    2.2602   -0.0791   -0.0985 C   0  0  0  0  0  0  0  0  0  0  0  0
    2.9071   -1.2975   -0.0251 N   0  0  0  0  0  0  0  0  0  0  0  0
    2.2396   -2.5437    0.0677 C   0  0  0  0  0  0  0  0  0  0  0  0
    0.8929   -2.7251   -0.2265 C   0  0  0  0  0  0  0  0  0  0  0  0
    0.2335   -3.8948   -0.0739 N   0  0  0  0  0  0  0  0  0  0  0  0
    0.9322   -4.9321    0.4105 C   0  0  0  0  0  0  0  0  0  0  0  0
    0.2765   -6.1257    0.6533 C   0  0  0  0  0  0  0  0  0  0  0  0
    0.9584   -7.2166    1.1783 C   0  0  0  0  0  0  0  0  0  0  0  0
    2.3088   -7.0729    1.4325 C   0  0  0  0  0  0  0  0  0  0  0  0
    2.9982   -5.9329    1.2025 N   0  0  0  0  0  0  0  0  0  0  0  0
    2.3109   -4.8800    0.7101 C   0  0  0  0  0  0  0  0  0  0  0  0
    2.9508   -3.6632    0.5028 C   0  0  0  0  0  0  0  0  0  0  0  0
    3.1218    1.1266   -0.1481 C   0  0  0  0  0  0  0  0  0  0  0  0
    2.6793    2.2769    0.5189 C   0  0  0  0  0  0  0  0  0  0  0  0
    3.4024    3.4669    0.4192 C   0  0  0  0  0  0  0  0  0  0  0  0
    4.5648    3.5107   -0.3590 C   0  0  0  0  0  0  0  0  0  0  0  0
    5.2735    4.8131   -0.4888 C   0  0  0  0  0  0  0  0  0  0  0  0
    5.2168    5.6142    0.4403 O   0  0  0  0  0  0  0  0  0  0  0  0
    6.0435    5.1700   -1.7112 C   0  0  0  0  0  0  0  0  0  0  0  0
    5.6914    4.6897   -2.9803 C   0  0  0  0  0  0  0  0  0  0  0  0
    6.4746    5.0282   -4.0795 C   0  0  0  0  0  0  0  0  0  0  0  0
    6.1976    4.5462   -5.3245 O   0  0  0  0  0  0  0  0  0  0  0  0
    7.5729    5.8695   -3.9428 C   0  0  0  0  0  0  0  0  0  0  0  0
    7.8991    6.3844   -2.6891 C   0  0  0  0  0  0  0  0  0  0  0  0
    7.1365    6.0350   -1.5734 C   0  0  0  0  0  0  0  0  0  0  0  0
    5.0318    2.3452   -0.9831 C   0  0  0  0  0  0  0  0  0  0  0  0
    4.2994    1.1566   -0.8968 C   0  0  0  0  0  0  0  0  0  0  0  0
    3.9042   -1.2981    0.1537 H   0  0  0  0  0  0  0  0  0  0  0  0
    0.2675   -1.9288   -0.6165 H   0  0  0  0  0  0  0  0  0  0  0  0
   -0.7878   -6.1945    0.4428 H   0  0  0  0  0  0  0  0  0  0  0  0
    0.4430   -8.1475    1.3851 H   0  0  0  0  0  0  0  0  0  0  0  0
    2.8888   -7.8930    1.8466 H   0  0  0  0  0  0  0  0  0  0  0  0
    4.0091   -3.5976    0.7381 H   0  0  0  0  0  0  0  0  0  0  0  0
    1.7593    2.2552    1.1012 H   0  0  0  0  0  0  0  0  0  0  0  0
    3.0458    4.3564    0.9316 H   0  0  0  0  0  0  0  0  0  0  0  0
    4.8157    4.0637   -3.1140 H   0  0  0  0  0  0  0  0  0  0  0  0
    5.3971    3.9972   -5.2881 H   0  0  0  0  0  0  0  0  0  0  0  0
    8.1672    6.1325   -4.8138 H   0  0  0  0  0  0  0  0  0  0  0  0
    8.7461    7.0567   -2.5802 H   0  0  0  0  0  0  0  0  0  0  0  0
    7.3966    6.4382   -0.5961 H   0  0  0  0  0  0  0  0  0  0  0  0
    5.9540    2.3473   -1.5569 H   0  0  0  0  0  0  0  0  0  0  0  0
    4.6379    0.2843   -1.4498 H   0  0  0  0  0  0  0  0  0  0  0  0
  1  2  2  0  0  0  0
  2  3  1  0  0  0  0
  2 14  1  0  0  0  0
  3  4  1  0  0  0  0
  3 29  1  0  0  0  0
  4  5  2  0  0  0  0
  4 13  1  0  0  0  0
  5  6  1  0  0  0  0
  5 30  1  0  0  0  0
  6  7  2  0  0  0  0
  7  8  1  0  0  0  0
  7 12  1  0  0  0  0
  8  9  2  0  0  0  0
  8 31  1  0  0  0  0
  9 10  1  0  0  0  0
  9 32  1  0  0  0  0
 10 11  2  0  0  0  0
 10 33  1  0  0  0  0
 11 12  1  0  0  0  0
 12 13  2  0  0  0  0
 13 34  1  0  0  0  0
 14 15  2  0  0  0  0
 14 28  1  0  0  0  0
 15 16  1  0  0  0  0
 15 35  1  0  0  0  0
 16 17  2  0  0  0  0
 16 36  1  0  0  0  0
 17 18  1  0  0  0  0
 17 27  1  0  0  0  0
 18 19  2  0  0  0  0
 18 20  1  0  0  0  0
 20 21  2  0  0  0  0
 20 26  1  0  0  0  0
 21 22  1  0  0  0  0
 21 37  1  0  0  0  0
 22 23  1  0  0  0  0
 22 24  2  0  0  0  0
 23 38  1  0  0  0  0
 24 25  1  0  0  0  0
 24 39  1  0  0  0  0
 25 26  2  0  0  0  0
 25 40  1  0  0  0  0
 26 41  1  0  0  0  0
 27 28  2  0  0  0  0
 27 42  1  0  0  0  0
 28 43  1  0  0  0  0
M  END
$$$$
