
 OpenBabel01122422423D

 47 50  0  0  0  0  0  0  0  0999 V2000
    1.8320   -1.1736   -0.4692 O   0  0  0  0  0  0  0  0  0  0  0  0
    2.0592   -0.0718    0.0143 C   0  0  0  0  0  0  0  0  0  0  0  0
    2.8609    0.1514    1.2923 C   0  0  0  0  0  0  0  0  0  0  0  0
    2.0132    0.1351    2.4347 O   0  0  0  0  0  0  0  0  0  0  0  0
    2.6175    0.1808    3.6656 C   0  0  0  0  0  0  0  0  0  0  0  0
    3.9914    0.2559    3.8967 C   0  0  0  0  0  0  0  0  0  0  0  0
    4.4870    0.2639    5.2033 C   0  0  0  0  0  0  0  0  0  0  0  0
    3.6140    0.2223    6.2906 C   0  0  0  0  0  0  0  0  0  0  0  0
    2.2369    0.2095    6.0733 C   0  0  0  0  0  0  0  0  0  0  0  0
    1.3095    0.1702    7.0929 O   0  0  0  0  0  0  0  0  0  0  0  0
    1.5639    0.8969    8.2545 C   0  0  0  0  0  0  0  0  0  0  0  0
    0.9381    0.4566    9.4125 C   0  0  0  0  0  0  0  0  0  0  0  0
    1.1797    1.1458   10.5995 C   0  0  0  0  0  0  0  0  0  0  0  0
    2.0272    2.2489   10.5848 C   0  0  0  0  0  0  0  0  0  0  0  0
    2.5858    2.6300    9.3792 C   0  0  0  0  0  0  0  0  0  0  0  0
    2.3624    1.9891    8.2126 N   0  0  0  0  0  0  0  0  0  0  0  0
    1.7448    0.1528    4.7631 C   0  0  0  0  0  0  0  0  0  0  0  0
    1.6701    1.1103   -0.5417 O   0  0  0  0  0  0  0  0  0  0  0  0
    0.8499    1.0231   -1.7305 C   0  0  0  0  0  0  0  0  0  0  0  0
    1.6490    1.1349   -3.0222 C   0  0  0  0  0  0  0  0  0  0  0  0
    2.9818    1.0453   -3.0238 C   0  0  0  0  0  0  0  0  0  0  0  0
    3.7059    1.4363   -4.2342 C   0  0  0  0  0  0  0  0  0  0  0  0
    4.8912    1.7359   -4.1400 O   0  0  0  0  0  0  0  0  0  0  0  0
    2.9577    1.4670   -5.3890 N   0  0  0  0  0  0  0  0  0  0  0  0
    3.6129    1.5816   -6.6077 C   0  0  0  0  0  0  0  0  0  0  0  0
    2.9402    1.6097   -7.7688 C   0  0  0  0  0  0  0  0  0  0  0  0
    3.7652    1.6511   -9.2765 Cl  0  0  0  0  0  0  0  0  0  0  0  0
    1.4989    1.5896   -7.7570 C   0  0  0  0  0  0  0  0  0  0  0  0
    0.8305    1.5434   -6.5942 C   0  0  0  0  0  0  0  0  0  0  0  0
    1.5702    1.4537   -5.2975 C   0  0  0  0  0  0  0  0  0  0  0  0
    0.9175    1.3518   -4.1739 N   0  0  0  0  0  0  0  0  0  0  0  0
    3.3925    1.1081    1.2153 H   0  0  0  0  0  0  0  0  0  0  0  0
    3.6031   -0.6562    1.3361 H   0  0  0  0  0  0  0  0  0  0  0  0
    4.7142    0.3012    3.0889 H   0  0  0  0  0  0  0  0  0  0  0  0
    5.5581    0.3158    5.3828 H   0  0  0  0  0  0  0  0  0  0  0  0
    4.0218    0.2174    7.2956 H   0  0  0  0  0  0  0  0  0  0  0  0
    0.2868   -0.4088    9.3948 H   0  0  0  0  0  0  0  0  0  0  0  0
    0.7169    0.8213   11.5268 H   0  0  0  0  0  0  0  0  0  0  0  0
    2.2451    2.7991   11.4953 H   0  0  0  0  0  0  0  0  0  0  0  0
    3.2550    3.4841    9.3150 H   0  0  0  0  0  0  0  0  0  0  0  0
    0.6725    0.0957    4.5947 H   0  0  0  0  0  0  0  0  0  0  0  0
    0.1791    1.8887   -1.6779 H   0  0  0  0  0  0  0  0  0  0  0  0
    0.2183    0.1283   -1.7226 H   0  0  0  0  0  0  0  0  0  0  0  0
    3.5864    0.7936   -2.1670 H   0  0  0  0  0  0  0  0  0  0  0  0
    4.7019    1.6128   -6.5811 H   0  0  0  0  0  0  0  0  0  0  0  0
    0.9710    1.6180   -8.7021 H   0  0  0  0  0  0  0  0  0  0  0  0
   -0.2531    1.5328   -6.5472 H   0  0  0  0  0  0  0  0  0  0  0  0
  1  2  2  0  0  0  0
  2  3  1  0  0  0  0
  2 18  1  0  0  0  0
  3  4  1  0  0  0  0
  3 32  1  0  0  0  0
  3 33  1  0  0  0  0
  4  5  1  0  0  0  0
  5  6  2  0  0  0  0
  5 17  1  0  0  0  0
  6  7  1  0  0  0  0
  6 34  1  0  0  0  0
  7  8  2  0  0  0  0
  7 35  1  0  0  0  0
  8  9  1  0  0  0  0
  8 36  1  0  0  0  0
  9 10  1  0  0  0  0
  9 17  2  0  0  0  0
 10 11  1  0  0  0  0
 11 12  2  0  0  0  0
 11 16  1  0  0  0  0
 12 13  1  0  0  0  0
 12 37  1  0  0  0  0
 13 14  2  0  0  0  0
 13 38  1  0  0  0  0
 14 15  1  0  0  0  0
 14 39  1  0  0  0  0
 15 16  2  0  0  0  0
 15 40  1  0  0  0  0
 17 41  1  0  0  0  0
 18 19  1  0  0  0  0
 19 20  1  0  0  0  0
 19 42  1  0  0  0  0
 19 43  1  0  0  0  0
 20 21  2  0  0  0  0
 20 31  1  0  0  0  0
 21 22  1  0  0  0  0
 21 44  1  0  0  0  0
 22 23  2  0  0  0  0
 22 24  1  0  0  0  0
 24 25  1  0  0  0  0
 24 30  1  0  0  0  0
 25 26  2  0  0  0  0
 25 45  1  0  0  0  0
 26 27  1  0  0  0  0
 26 28  1  0  0  0  0
 28 29  2  0  0  0  0
 28 46  1  0  0  0  0
 29 30  1  0  0  0  0
 29 47  1  0  0  0  0
 30 31  2  0  0  0  0
M  END
$$$$
