
 OpenBabel01122422423D

 50 53  0  0  0  0  0  0  0  0999 V2000
    4.5022    5.2951   -3.0846 C   0  0  0  0  0  0  0  0  0  0  0  0
    4.4434    4.4634   -1.9308 O   0  0  0  0  0  0  0  0  0  0  0  0
    5.6360    4.1024   -1.3650 C   0  0  0  0  0  0  0  0  0  0  0  0
    6.9000    4.4642   -1.8366 C   0  0  0  0  0  0  0  0  0  0  0  0
    8.0497    4.0296   -1.1745 C   0  0  0  0  0  0  0  0  0  0  0  0
    7.9425    3.2418   -0.0303 C   0  0  0  0  0  0  0  0  0  0  0  0
    6.6804    2.9172    0.4813 C   0  0  0  0  0  0  0  0  0  0  0  0
    6.5366    2.1603    1.7569 C   0  0  0  0  0  0  0  0  0  0  0  0
    5.6190    1.3539    1.8834 O   0  0  0  0  0  0  0  0  0  0  0  0
    7.4834    2.3732    2.8917 C   0  0  0  0  0  0  0  0  0  0  0  0
    7.7104    1.3343    3.8071 C   0  0  0  0  0  0  0  0  0  0  0  0
    8.6162    1.5047    4.8677 C   0  0  0  0  0  0  0  0  0  0  0  0
    9.3012    2.7171    5.0121 C   0  0  0  0  0  0  0  0  0  0  0  0
   10.2995    2.9704    6.0807 C   0  0  0  0  0  0  0  0  0  0  0  0
   11.1912    3.7962    5.9587 O   0  0  0  0  0  0  0  0  0  0  0  0
   10.0290    2.2363    7.1840 O   0  0  0  0  0  0  0  0  0  0  0  0
   10.8654    2.5073    8.3184 C   0  0  0  0  0  0  0  0  0  0  0  0
   10.0340    3.1444    9.4064 C   0  0  0  0  0  0  0  0  0  0  0  0
    9.8959    4.5552    9.4542 C   0  0  0  0  0  0  0  0  0  0  0  0
    9.1194    5.1764   10.4392 C   0  0  0  0  0  0  0  0  0  0  0  0
    8.4880    4.3567   11.3467 C   0  0  0  0  0  0  0  0  0  0  0  0
    8.6048    2.9829   11.3083 C   0  0  0  0  0  0  0  0  0  0  0  0
    9.3709    2.3460   10.3537 C   0  0  0  0  0  0  0  0  0  0  0  0
    7.8764    2.3560   12.3072 O   0  0  0  0  0  0  0  0  0  0  0  0
    7.2814    3.4379   12.9758 C   0  0  0  0  0  0  0  0  0  0  0  0
    6.5299    3.2956   13.9318 O   0  0  0  0  0  0  0  0  0  0  0  0
    7.6600    4.6364   12.4070 N   0  0  0  0  0  0  0  0  0  0  0  0
    7.2556    5.9480   12.8223 C   0  0  0  0  0  0  0  0  0  0  0  0
    9.0612    3.7575    4.1073 C   0  0  0  0  0  0  0  0  0  0  0  0
    8.1382    3.5969    3.0719 C   0  0  0  0  0  0  0  0  0  0  0  0
    5.5308    3.3191   -0.2095 C   0  0  0  0  0  0  0  0  0  0  0  0
    3.4772    5.5591   -3.3619 H   0  0  0  0  0  0  0  0  0  0  0  0
    4.9518    4.7613   -3.9287 H   0  0  0  0  0  0  0  0  0  0  0  0
    5.0369    6.2286   -2.8785 H   0  0  0  0  0  0  0  0  0  0  0  0
    7.0268    5.0796   -2.7214 H   0  0  0  0  0  0  0  0  0  0  0  0
    9.0308    4.3105   -1.5500 H   0  0  0  0  0  0  0  0  0  0  0  0
    8.8517    2.8987    0.4564 H   0  0  0  0  0  0  0  0  0  0  0  0
    7.1870    0.3862    3.6935 H   0  0  0  0  0  0  0  0  0  0  0  0
    8.7855    0.6831    5.5607 H   0  0  0  0  0  0  0  0  0  0  0  0
   11.7294    3.1429    8.0880 H   0  0  0  0  0  0  0  0  0  0  0  0
   11.2751    1.5527    8.6666 H   0  0  0  0  0  0  0  0  0  0  0  0
   10.3991    5.1725    8.7105 H   0  0  0  0  0  0  0  0  0  0  0  0
    9.0196    6.2549   10.4711 H   0  0  0  0  0  0  0  0  0  0  0  0
    9.4506    1.2638   10.3424 H   0  0  0  0  0  0  0  0  0  0  0  0
    6.6171    5.8901   13.7080 H   0  0  0  0  0  0  0  0  0  0  0  0
    6.6993    6.4275   12.0114 H   0  0  0  0  0  0  0  0  0  0  0  0
    8.1432    6.5416   13.0611 H   0  0  0  0  0  0  0  0  0  0  0  0
    9.5862    4.7056    4.2104 H   0  0  0  0  0  0  0  0  0  0  0  0
    7.9494    4.4420    2.4164 H   0  0  0  0  0  0  0  0  0  0  0  0
    4.5463    3.0383    0.1603 H   0  0  0  0  0  0  0  0  0  0  0  0
  1  2  1  0  0  0  0
  1 32  1  0  0  0  0
  1 33  1  0  0  0  0
  1 34  1  0  0  0  0
  2  3  1  0  0  0  0
  3  4  2  0  0  0  0
  3 31  1  0  0  0  0
  4  5  1  0  0  0  0
  4 35  1  0  0  0  0
  5  6  2  0  0  0  0
  5 36  1  0  0  0  0
  6  7  1  0  0  0  0
  6 37  1  0  0  0  0
  7  8  1  0  0  0  0
  7 31  2  0  0  0  0
  8  9  2  0  0  0  0
  8 10  1  0  0  0  0
 10 11  2  0  0  0  0
 10 30  1  0  0  0  0
 11 12  1  0  0  0  0
 11 38  1  0  0  0  0
 12 13  2  0  0  0  0
 12 39  1  0  0  0  0
 13 14  1  0  0  0  0
 13 29  1  0  0  0  0
 14 15  2  0  0  0  0
 14 16  1  0  0  0  0
 16 17  1  0  0  0  0
 17 18  1  0  0  0  0
 17 40  1  0  0  0  0
 17 41  1  0  0  0  0
 18 19  2  0  0  0  0
 18 23  1  0  0  0  0
 19 20  1  0  0  0  0
 19 42  1  0  0  0  0
 20 21  2  0  0  0  0
 20 43  1  0  0  0  0
 21 22  1  0  0  0  0
 21 27  1  0  0  0  0
 22 23  2  0  0  0  0
 22 24  1  0  0  0  0
 23 44  1  0  0  0  0
 24 25  1  0  0  0  0
 25 26  2  0  0  0  0
 25 27  1  0  0  0  0
 27 28  1  0  0  0  0
 28 45  1  0  0  0  0
 28 46  1  0  0  0  0
 28 47  1  0  0  0  0
 29 30  2  0  0  0  0
 29 48  1  0  0  0  0
 30 49  1  0  0  0  0
 31 50  1  0  0  0  0
M  END
$$$$
