
 OpenBabel01122422423D

 52 55  0  0  0  0  0  0  0  0999 V2000
    3.1708   -2.8284    1.4711 N   0  0  0  0  0  0  0  0  0  0  0  0
    2.6554   -1.7775    0.7633 C   0  0  0  0  0  0  0  0  0  0  0  0
    1.5963   -1.2640    1.1056 O   0  0  0  0  0  0  0  0  0  0  0  0
    3.4035   -1.3916   -0.5267 C   0  0  0  0  0  0  0  0  0  0  0  0
    4.8501   -1.1671   -0.3629 N   0  0  0  0  0  0  0  0  0  0  0  0
    5.2697    0.2049   -0.0374 C   0  0  0  0  0  0  0  0  0  0  0  0
    5.3834    1.1473   -1.2230 C   0  0  0  0  0  0  0  0  0  0  0  0
    5.0812    2.5038   -1.0402 C   0  0  0  0  0  0  0  0  0  0  0  0
    5.0916    3.4062   -2.1152 C   0  0  0  0  0  0  0  0  0  0  0  0
    5.4244    3.0012   -3.4175 C   0  0  0  0  0  0  0  0  0  0  0  0
    5.2514    3.9169   -4.5802 C   0  0  0  0  0  0  0  0  0  0  0  0
    5.4166    5.3116   -4.4702 C   0  0  0  0  0  0  0  0  0  0  0  0
    5.1400    6.1751   -5.5400 C   0  0  0  0  0  0  0  0  0  0  0  0
    4.7084    5.6631   -6.7586 C   0  0  0  0  0  0  0  0  0  0  0  0
    4.5617    4.2890   -6.9083 C   0  0  0  0  0  0  0  0  0  0  0  0
    4.8278    3.4308   -5.8328 C   0  0  0  0  0  0  0  0  0  0  0  0
    5.8458    1.6667   -3.5649 C   0  0  0  0  0  0  0  0  0  0  0  0
    5.8225    0.7538   -2.4918 C   0  0  0  0  0  0  0  0  0  0  0  0
    5.6971   -2.2770   -0.3681 C   0  0  0  0  0  0  0  0  0  0  0  0
    5.2291   -3.4180   -0.4221 O   0  0  0  0  0  0  0  0  0  0  0  0
    7.1893   -2.0121   -0.2144 C   0  0  0  0  0  0  0  0  0  0  0  0
    8.0871   -3.0503   -0.7879 C   0  0  0  0  0  0  0  0  0  0  0  0
    7.9545   -4.2912   -1.3828 C   0  0  0  0  0  0  0  0  0  0  0  0
    9.2686   -4.7576   -1.6687 C   0  0  0  0  0  0  0  0  0  0  0  0
    9.8346   -5.9180   -2.2285 C   0  0  0  0  0  0  0  0  0  0  0  0
   11.2329   -6.0048   -2.3319 C   0  0  0  0  0  0  0  0  0  0  0  0
   12.0551   -4.9597   -1.9016 C   0  0  0  0  0  0  0  0  0  0  0  0
   11.5117   -3.7968   -1.3490 C   0  0  0  0  0  0  0  0  0  0  0  0
   10.1236   -3.7484   -1.2485 C   0  0  0  0  0  0  0  0  0  0  0  0
    9.4133   -2.7183   -0.7213 O   0  0  0  0  0  0  0  0  0  0  0  0
    2.5884   -3.2146    2.2015 H   0  0  0  0  0  0  0  0  0  0  0  0
    3.8404   -3.4465    1.0178 H   0  0  0  0  0  0  0  0  0  0  0  0
    2.9483   -0.4844   -0.9382 H   0  0  0  0  0  0  0  0  0  0  0  0
    3.2437   -2.2007   -1.2480 H   0  0  0  0  0  0  0  0  0  0  0  0
    6.2196    0.2035    0.5048 H   0  0  0  0  0  0  0  0  0  0  0  0
    4.5218    0.5974    0.6640 H   0  0  0  0  0  0  0  0  0  0  0  0
    4.7960    2.8765   -0.0579 H   0  0  0  0  0  0  0  0  0  0  0  0
    4.7833    4.4308   -1.9186 H   0  0  0  0  0  0  0  0  0  0  0  0
    5.7542    5.7562   -3.5372 H   0  0  0  0  0  0  0  0  0  0  0  0
    5.2490    7.2497   -5.4134 H   0  0  0  0  0  0  0  0  0  0  0  0
    4.4802    6.3319   -7.5848 H   0  0  0  0  0  0  0  0  0  0  0  0
    4.2197    3.8796   -7.8558 H   0  0  0  0  0  0  0  0  0  0  0  0
    4.6591    2.3667   -5.9829 H   0  0  0  0  0  0  0  0  0  0  0  0
    6.1826    1.3062   -4.5358 H   0  0  0  0  0  0  0  0  0  0  0  0
    6.1313   -0.2714   -2.6823 H   0  0  0  0  0  0  0  0  0  0  0  0
    7.3948   -1.9162    0.8582 H   0  0  0  0  0  0  0  0  0  0  0  0
    7.4520   -1.0695   -0.7019 H   0  0  0  0  0  0  0  0  0  0  0  0
    7.0278   -4.8148   -1.5746 H   0  0  0  0  0  0  0  0  0  0  0  0
    9.2081   -6.7374   -2.5671 H   0  0  0  0  0  0  0  0  0  0  0  0
   11.6841   -6.9016   -2.7520 H   0  0  0  0  0  0  0  0  0  0  0  0
   13.1355   -5.0511   -1.9934 H   0  0  0  0  0  0  0  0  0  0  0  0
   12.1299   -2.9758   -1.0076 H   0  0  0  0  0  0  0  0  0  0  0  0
  1  2  1  0  0  0  0
  1 31  1  0  0  0  0
  1 32  1  0  0  0  0
  2  3  2  0  0  0  0
  2  4  1  0  0  0  0
  4  5  1  0  0  0  0
  4 33  1  0  0  0  0
  4 34  1  0  0  0  0
  5  6  1  0  0  0  0
  5 19  1  0  0  0  0
  6  7  1  0  0  0  0
  6 35  1  0  0  0  0
  6 36  1  0  0  0  0
  7  8  2  0  0  0  0
  7 18  1  0  0  0  0
  8  9  1  0  0  0  0
  8 37  1  0  0  0  0
  9 10  2  0  0  0  0
  9 38  1  0  0  0  0
 10 11  1  0  0  0  0
 10 17  1  0  0  0  0
 11 12  2  0  0  0  0
 11 16  1  0  0  0  0
 12 13  1  0  0  0  0
 12 39  1  0  0  0  0
 13 14  2  0  0  0  0
 13 40  1  0  0  0  0
 14 15  1  0  0  0  0
 14 41  1  0  0  0  0
 15 16  2  0  0  0  0
 15 42  1  0  0  0  0
 16 43  1  0  0  0  0
 17 18  2  0  0  0  0
 17 44  1  0  0  0  0
 18 45  1  0  0  0  0
 19 20  2  0  0  0  0
 19 21  1  0  0  0  0
 21 22  1  0  0  0  0
 21 46  1  0  0  0  0
 21 47  1  0  0  0  0
 22 23  2  0  0  0  0
 22 30  1  0  0  0  0
 23 24  1  0  0  0  0
 23 48  1  0  0  0  0
 24 25  2  0  0  0  0
 24 29  1  0  0  0  0
 25 26  1  0  0  0  0
 25 49  1  0  0  0  0
 26 27  2  0  0  0  0
 26 50  1  0  0  0  0
 27 28  1  0  0  0  0
 27 51  1  0  0  0  0
 28 29  2  0  0  0  0
 28 52  1  0  0  0  0
 29 30  1  0  0  0  0
M  END
$$$$
