
 OpenBabel01122422423D

 55 58  0  0  0  0  0  0  0  0999 V2000
   -1.0289   -2.1122   -0.8416 C   0  0  0  0  0  0  0  0  0  0  0  0
   -0.0613   -1.0602   -1.0266 N   0  0  0  0  0  0  0  0  0  0  0  0
   -0.3168    0.2216   -1.4196 C   0  0  0  0  0  0  0  0  0  0  0  0
    0.9017    0.8504   -1.4572 C   0  0  0  0  0  0  0  0  0  0  0  0
    1.8439   -0.1350   -1.0773 C   0  0  0  0  0  0  0  0  0  0  0  0
    3.3349    0.0406   -0.9719 C   0  0  0  0  0  0  0  0  0  0  0  0
    3.7549    1.1165   -0.0646 N   0  0  0  0  0  0  0  0  0  0  0  0
    5.0242    1.6806   -0.2234 C   0  0  0  0  0  0  0  0  0  0  0  0
    5.2239    2.9688    0.2899 C   0  0  0  0  0  0  0  0  0  0  0  0
    6.4733    3.5900    0.2228 C   0  0  0  0  0  0  0  0  0  0  0  0
    7.5647    2.9140   -0.3312 C   0  0  0  0  0  0  0  0  0  0  0  0
    8.8773    3.6069   -0.3295 C   0  0  0  0  0  0  0  0  0  0  0  0
    9.1366    4.4304    0.5401 O   0  0  0  0  0  0  0  0  0  0  0  0
    9.7536    3.2569   -1.3346 N   0  0  0  0  0  0  0  0  0  0  0  0
   11.0788    3.8385   -1.3829 C   0  0  0  0  0  0  0  0  0  0  0  0
   12.0702    2.9319   -2.0672 C   0  0  0  0  0  0  0  0  0  0  0  0
   12.7789    3.4024   -3.1872 C   0  0  0  0  0  0  0  0  0  0  0  0
   13.7376    2.6047   -3.8148 C   0  0  0  0  0  0  0  0  0  0  0  0
   13.9870    1.3190   -3.3468 C   0  0  0  0  0  0  0  0  0  0  0  0
   13.2827    0.8316   -2.2476 C   0  0  0  0  0  0  0  0  0  0  0  0
   12.3564    1.6423   -1.5788 C   0  0  0  0  0  0  0  0  0  0  0  0
   11.6313    1.1946   -0.4912 O   0  0  0  0  0  0  0  0  0  0  0  0
   12.2543    0.3659    0.4359 C   0  0  0  0  0  0  0  0  0  0  0  0
   11.4248   -0.4775    1.1606 C   0  0  0  0  0  0  0  0  0  0  0  0
   12.0086   -1.3456    2.0789 C   0  0  0  0  0  0  0  0  0  0  0  0
   13.3895   -1.3329    2.2462 C   0  0  0  0  0  0  0  0  0  0  0  0
   14.1324   -0.4339    1.4991 C   0  0  0  0  0  0  0  0  0  0  0  0
   13.5947    0.4239    0.6077 N   0  0  0  0  0  0  0  0  0  0  0  0
    7.3885    1.6047   -0.7917 C   0  0  0  0  0  0  0  0  0  0  0  0
    8.4151    0.8206   -1.2505 O   0  0  0  0  0  0  0  0  0  0  0  0
    6.1274    0.9999   -0.7495 C   0  0  0  0  0  0  0  0  0  0  0  0
    1.2445   -1.3065   -0.8081 N   0  0  0  0  0  0  0  0  0  0  0  0
   -2.0232   -1.7440   -1.1063 H   0  0  0  0  0  0  0  0  0  0  0  0
   -1.0103   -2.4163    0.2079 H   0  0  0  0  0  0  0  0  0  0  0  0
   -0.7582   -2.9492   -1.4910 H   0  0  0  0  0  0  0  0  0  0  0  0
   -1.3161    0.5705   -1.6326 H   0  0  0  0  0  0  0  0  0  0  0  0
    1.1027    1.8827   -1.7210 H   0  0  0  0  0  0  0  0  0  0  0  0
    3.6967    0.2481   -1.9874 H   0  0  0  0  0  0  0  0  0  0  0  0
    3.7928   -0.9022   -0.6476 H   0  0  0  0  0  0  0  0  0  0  0  0
    3.6282    0.8116    0.9013 H   0  0  0  0  0  0  0  0  0  0  0  0
    4.3874    3.5060    0.7335 H   0  0  0  0  0  0  0  0  0  0  0  0
    6.5914    4.5983    0.6147 H   0  0  0  0  0  0  0  0  0  0  0  0
    9.3870    2.8397   -2.1840 H   0  0  0  0  0  0  0  0  0  0  0  0
   11.4332    4.0699   -0.3719 H   0  0  0  0  0  0  0  0  0  0  0  0
   10.9832    4.7911   -1.9176 H   0  0  0  0  0  0  0  0  0  0  0  0
   12.5994    4.4042   -3.5724 H   0  0  0  0  0  0  0  0  0  0  0  0
   14.2929    2.9875   -4.6673 H   0  0  0  0  0  0  0  0  0  0  0  0
   14.7349    0.6949   -3.8284 H   0  0  0  0  0  0  0  0  0  0  0  0
   13.4860   -0.1792   -1.9044 H   0  0  0  0  0  0  0  0  0  0  0  0
   10.3519   -0.4708    1.0060 H   0  0  0  0  0  0  0  0  0  0  0  0
   11.3922   -2.0294    2.6555 H   0  0  0  0  0  0  0  0  0  0  0  0
   13.8762   -2.0046    2.9446 H   0  0  0  0  0  0  0  0  0  0  0  0
   15.2132   -0.3821    1.5947 H   0  0  0  0  0  0  0  0  0  0  0  0
    9.2631    1.2096   -0.9566 H   0  0  0  0  0  0  0  0  0  0  0  0
    6.0360   -0.0228   -1.1030 H   0  0  0  0  0  0  0  0  0  0  0  0
  1  2  1  0  0  0  0
  1 33  1  0  0  0  0
  1 34  1  0  0  0  0
  1 35  1  0  0  0  0
  2  3  1  0  0  0  0
  2 32  1  0  0  0  0
  3  4  2  0  0  0  0
  3 36  1  0  0  0  0
  4  5  1  0  0  0  0
  4 37  1  0  0  0  0
  5  6  1  0  0  0  0
  5 32  2  0  0  0  0
  6  7  1  0  0  0  0
  6 38  1  0  0  0  0
  6 39  1  0  0  0  0
  7  8  1  0  0  0  0
  7 40  1  0  0  0  0
  8  9  2  0  0  0  0
  8 31  1  0  0  0  0
  9 10  1  0  0  0  0
  9 41  1  0  0  0  0
 10 11  2  0  0  0  0
 10 42  1  0  0  0  0
 11 12  1  0  0  0  0
 11 29  1  0  0  0  0
 12 13  2  0  0  0  0
 12 14  1  0  0  0  0
 14 15  1  0  0  0  0
 14 43  1  0  0  0  0
 15 16  1  0  0  0  0
 15 44  1  0  0  0  0
 15 45  1  0  0  0  0
 16 17  2  0  0  0  0
 16 21  1  0  0  0  0
 17 18  1  0  0  0  0
 17 46  1  0  0  0  0
 18 19  2  0  0  0  0
 18 47  1  0  0  0  0
 19 20  1  0  0  0  0
 19 48  1  0  0  0  0
 20 21  2  0  0  0  0
 20 49  1  0  0  0  0
 21 22  1  0  0  0  0
 22 23  1  0  0  0  0
 23 24  2  0  0  0  0
 23 28  1  0  0  0  0
 24 25  1  0  0  0  0
 24 50  1  0  0  0  0
 25 26  2  0  0  0  0
 25 51  1  0  0  0  0
 26 27  1  0  0  0  0
 26 52  1  0  0  0  0
 27 28  2  0  0  0  0
 27 53  1  0  0  0  0
 29 30  1  0  0  0  0
 29 31  2  0  0  0  0
 30 54  1  0  0  0  0
 31 55  1  0  0  0  0
M  END
$$$$
