
 OpenBabel01122422423D

 46 49  0  0  0  0  0  0  0  0999 V2000
   -1.7909   -2.1051    0.3497 C   0  0  0  0  0  0  0  0  0  0  0  0
   -0.8924   -0.9592   -0.0319 C   0  0  0  0  0  0  0  0  0  0  0  0
   -1.5025    0.3019   -0.2187 C   0  0  0  0  0  0  0  0  0  0  0  0
   -0.7713    1.4414   -0.5768 C   0  0  0  0  0  0  0  0  0  0  0  0
   -1.4716    2.7104   -0.7997 C   0  0  0  0  0  0  0  0  0  0  0  0
   -2.7589    2.9321   -0.5956 N   0  0  0  0  0  0  0  0  0  0  0  0
   -2.9919    4.2315   -0.9613 C   0  0  0  0  0  0  0  0  0  0  0  0
   -1.8352    4.8248   -1.3978 C   0  0  0  0  0  0  0  0  0  0  0  0
   -0.8793    3.8549   -1.2877 N   0  0  0  0  0  0  0  0  0  0  0  0
    0.6076    1.3113   -0.7204 C   0  0  0  0  0  0  0  0  0  0  0  0
    1.2302    0.0744   -0.5264 C   0  0  0  0  0  0  0  0  0  0  0  0
    0.5037   -1.0752   -0.1937 C   0  0  0  0  0  0  0  0  0  0  0  0
    1.1390   -2.3374   -0.0423 N   0  0  0  0  0  0  0  0  0  0  0  0
    2.4964   -2.6032   -0.1746 C   0  0  0  0  0  0  0  0  0  0  0  0
    3.3836   -1.7907   -0.4248 O   0  0  0  0  0  0  0  0  0  0  0  0
    2.8823   -4.0464   -0.0704 C   0  0  0  0  0  0  0  0  0  0  0  0
    2.2935   -4.8612    0.8139 C   0  0  0  0  0  0  0  0  0  0  0  0
    2.5987   -6.2177    0.8964 N   0  0  0  0  0  0  0  0  0  0  0  0
    1.8677   -7.0362    1.8140 C   0  0  0  0  0  0  0  0  0  0  0  0
    1.2830   -8.2370    1.3955 C   0  0  0  0  0  0  0  0  0  0  0  0
    0.4360   -8.9418    2.2562 C   0  0  0  0  0  0  0  0  0  0  0  0
    0.1995   -8.4791    3.5523 C   0  0  0  0  0  0  0  0  0  0  0  0
    0.8126   -7.3107    3.9943 C   0  0  0  0  0  0  0  0  0  0  0  0
    1.6296   -6.5970    3.1256 C   0  0  0  0  0  0  0  0  0  0  0  0
    2.2046   -5.4719    3.5805 F   0  0  0  0  0  0  0  0  0  0  0  0
    3.5705   -6.8001    0.0616 C   0  0  0  0  0  0  0  0  0  0  0  0
    3.8882   -7.9868    0.0302 O   0  0  0  0  0  0  0  0  0  0  0  0
    4.3124   -5.8543   -0.8218 C   0  0  0  0  0  0  0  0  0  0  0  0
    3.9759   -4.5599   -0.8692 C   0  0  0  0  0  0  0  0  0  0  0  0
   -2.8481   -1.8151    0.3022 H   0  0  0  0  0  0  0  0  0  0  0  0
   -1.5874   -2.4270    1.3758 H   0  0  0  0  0  0  0  0  0  0  0  0
   -1.6664   -2.9470   -0.3379 H   0  0  0  0  0  0  0  0  0  0  0  0
   -2.5815    0.4023   -0.0876 H   0  0  0  0  0  0  0  0  0  0  0  0
   -3.9808    4.6646   -0.8931 H   0  0  0  0  0  0  0  0  0  0  0  0
   -1.6144    5.8150   -1.7678 H   0  0  0  0  0  0  0  0  0  0  0  0
    0.0929    3.9526   -1.5382 H   0  0  0  0  0  0  0  0  0  0  0  0
    1.2403    2.1515   -0.9869 H   0  0  0  0  0  0  0  0  0  0  0  0
    2.3059    0.0564   -0.6628 H   0  0  0  0  0  0  0  0  0  0  0  0
    0.5208   -3.1185    0.1251 H   0  0  0  0  0  0  0  0  0  0  0  0
    1.5129   -4.5038    1.4785 H   0  0  0  0  0  0  0  0  0  0  0  0
    1.4299   -8.6049    0.3822 H   0  0  0  0  0  0  0  0  0  0  0  0
   -0.0515   -9.8494    1.9073 H   0  0  0  0  0  0  0  0  0  0  0  0
   -0.4639   -9.0284    4.2148 H   0  0  0  0  0  0  0  0  0  0  0  0
    0.6563   -6.9438    5.0033 H   0  0  0  0  0  0  0  0  0  0  0  0
    5.1353   -6.2653   -1.3939 H   0  0  0  0  0  0  0  0  0  0  0  0
    4.5349   -3.8625   -1.4883 H   0  0  0  0  0  0  0  0  0  0  0  0
  1  2  1  0  0  0  0
  1 30  1  0  0  0  0
  1 31  1  0  0  0  0
  1 32  1  0  0  0  0
  2  3  2  0  0  0  0
  2 12  1  0  0  0  0
  3  4  1  0  0  0  0
  3 33  1  0  0  0  0
  4  5  1  0  0  0  0
  4 10  2  0  0  0  0
  5  6  2  0  0  0  0
  5  9  1  0  0  0  0
  6  7  1  0  0  0  0
  7  8  2  0  0  0  0
  7 34  1  0  0  0  0
  8  9  1  0  0  0  0
  8 35  1  0  0  0  0
  9 36  1  0  0  0  0
 10 11  1  0  0  0  0
 10 37  1  0  0  0  0
 11 12  2  0  0  0  0
 11 38  1  0  0  0  0
 12 13  1  0  0  0  0
 13 14  1  0  0  0  0
 13 39  1  0  0  0  0
 14 15  2  0  0  0  0
 14 16  1  0  0  0  0
 16 17  2  0  0  0  0
 16 29  1  0  0  0  0
 17 18  1  0  0  0  0
 17 40  1  0  0  0  0
 18 19  1  0  0  0  0
 18 26  1  0  0  0  0
 19 20  2  0  0  0  0
 19 24  1  0  0  0  0
 20 21  1  0  0  0  0
 20 41  1  0  0  0  0
 21 22  2  0  0  0  0
 21 42  1  0  0  0  0
 22 23  1  0  0  0  0
 22 43  1  0  0  0  0
 23 24  2  0  0  0  0
 23 44  1  0  0  0  0
 24 25  1  0  0  0  0
 26 27  2  0  0  0  0
 26 28  1  0  0  0  0
 28 29  2  0  0  0  0
 28 45  1  0  0  0  0
 29 46  1  0  0  0  0
M  END
$$$$
