
 OpenBabel01122422353D

 55 58  0  0  0  0  0  0  0  0999 V2000
    0.9712   -0.0135   -0.0050 O   0  0  0  0  0  0  0  0  0  0  0  0
    2.1975   -0.0076    0.0619 C   0  0  0  0  0  0  0  0  0  0  0  0
    2.9007   -0.7922    0.9299 N   0  0  0  0  0  0  0  0  0  0  0  0
    2.2079   -1.6521    1.8714 C   0  0  0  0  0  0  0  0  0  0  0  0
    3.2046   -2.4524    2.7263 C   0  0  0  0  0  0  0  0  0  0  0  0
    4.3295   -1.9968    2.9535 O   0  0  0  0  0  0  0  0  0  0  0  0
    2.7693   -3.6660    3.2508 N   0  0  0  0  0  0  0  0  0  0  0  0
    1.4350   -4.2234    2.9822 C   0  0  0  0  0  0  0  0  0  0  0  0
    1.0803   -5.4650    3.8047 C   0  0  0  0  0  0  0  0  0  0  0  0
    2.1988   -6.4652    3.7076 C   0  0  0  0  0  0  0  0  0  0  0  0
    1.9636   -7.8356    3.5689 C   0  0  0  0  0  0  0  0  0  0  0  0
    3.0400   -8.7168    3.4713 C   0  0  0  0  0  0  0  0  0  0  0  0
    4.3479   -8.2346    3.5268 C   0  0  0  0  0  0  0  0  0  0  0  0
    4.5868   -6.8682    3.6877 C   0  0  0  0  0  0  0  0  0  0  0  0
    3.5148   -5.9740    3.7726 C   0  0  0  0  0  0  0  0  0  0  0  0
    3.7319   -4.4913    3.9902 C   0  0  0  0  0  0  0  0  0  0  0  0
    3.0045    0.7340   -0.7475 N   0  0  0  0  0  0  0  0  0  0  0  0
    2.4895    1.6138   -1.7764 C   0  0  0  0  0  0  0  0  0  0  0  0
    2.9914    1.2221   -3.1406 C   0  0  0  0  0  0  0  0  0  0  0  0
    2.6563   -0.0132   -3.7013 C   0  0  0  0  0  0  0  0  0  0  0  0
    3.1483   -0.3793   -4.9635 C   0  0  0  0  0  0  0  0  0  0  0  0
    3.9982    0.4680   -5.7015 C   0  0  0  0  0  0  0  0  0  0  0  0
    4.5734    0.0528   -7.0045 C   0  0  0  0  0  0  0  0  0  0  0  0
    4.8316    0.9862   -8.0278 C   0  0  0  0  0  0  0  0  0  0  0  0
    5.4132    0.6010   -9.2399 C   0  0  0  0  0  0  0  0  0  0  0  0
    5.7414   -0.7310   -9.4662 C   0  0  0  0  0  0  0  0  0  0  0  0
    5.4862   -1.6773   -8.4800 C   0  0  0  0  0  0  0  0  0  0  0  0
    4.9118   -1.2878   -7.2646 C   0  0  0  0  0  0  0  0  0  0  0  0
    4.2986    1.7163   -5.1341 C   0  0  0  0  0  0  0  0  0  0  0  0
    3.7997    2.0826   -3.8822 C   0  0  0  0  0  0  0  0  0  0  0  0
    4.1213    3.2897   -3.3930 F   0  0  0  0  0  0  0  0  0  0  0  0
    3.8796   -0.6078    1.1092 H   0  0  0  0  0  0  0  0  0  0  0  0
    1.5581   -2.3067    1.2893 H   0  0  0  0  0  0  0  0  0  0  0  0
    1.5968   -1.0275    2.5336 H   0  0  0  0  0  0  0  0  0  0  0  0
    1.4214   -4.4818    1.9159 H   0  0  0  0  0  0  0  0  0  0  0  0
    0.6851   -3.4427    3.1447 H   0  0  0  0  0  0  0  0  0  0  0  0
    0.1417   -5.8888    3.4298 H   0  0  0  0  0  0  0  0  0  0  0  0
    0.9329   -5.2009    4.8586 H   0  0  0  0  0  0  0  0  0  0  0  0
    0.9489   -8.2230    3.5263 H   0  0  0  0  0  0  0  0  0  0  0  0
    2.8598   -9.7823    3.3519 H   0  0  0  0  0  0  0  0  0  0  0  0
    5.1832   -8.9259    3.4495 H   0  0  0  0  0  0  0  0  0  0  0  0
    5.6119   -6.5091    3.7407 H   0  0  0  0  0  0  0  0  0  0  0  0
    4.7548   -4.2153    3.7172 H   0  0  0  0  0  0  0  0  0  0  0  0
    3.5977   -4.2722    5.0548 H   0  0  0  0  0  0  0  0  0  0  0  0
    4.0036    0.6637   -0.6416 H   0  0  0  0  0  0  0  0  0  0  0  0
    2.8187    2.6252   -1.5121 H   0  0  0  0  0  0  0  0  0  0  0  0
    1.3928    1.6217   -1.7807 H   0  0  0  0  0  0  0  0  0  0  0  0
    2.0110   -0.7014   -3.1602 H   0  0  0  0  0  0  0  0  0  0  0  0
    2.8501   -1.3453   -5.3638 H   0  0  0  0  0  0  0  0  0  0  0  0
    4.5771    2.0352   -7.8969 H   0  0  0  0  0  0  0  0  0  0  0  0
    5.6124    1.3472  -10.0062 H   0  0  0  0  0  0  0  0  0  0  0  0
    6.1958   -1.0307  -10.4064 H   0  0  0  0  0  0  0  0  0  0  0  0
    5.7399   -2.7211   -8.6488 H   0  0  0  0  0  0  0  0  0  0  0  0
    4.7540   -2.0550   -6.5089 H   0  0  0  0  0  0  0  0  0  0  0  0
    4.9484    2.4231   -5.6398 H   0  0  0  0  0  0  0  0  0  0  0  0
  1  2  2  0  0  0  0
  2  3  1  0  0  0  0
  2 17  1  0  0  0  0
  3  4  1  0  0  0  0
  3 32  1  0  0  0  0
  4  5  1  0  0  0  0
  4 33  1  0  0  0  0
  4 34  1  0  0  0  0
  5  6  2  0  0  0  0
  5  7  1  0  0  0  0
  7  8  1  0  0  0  0
  7 16  1  0  0  0  0
  8  9  1  0  0  0  0
  8 35  1  0  0  0  0
  8 36  1  0  0  0  0
  9 10  1  0  0  0  0
  9 37  1  0  0  0  0
  9 38  1  0  0  0  0
 10 11  2  0  0  0  0
 10 15  1  0  0  0  0
 11 12  1  0  0  0  0
 11 39  1  0  0  0  0
 12 13  2  0  0  0  0
 12 40  1  0  0  0  0
 13 14  1  0  0  0  0
 13 41  1  0  0  0  0
 14 15  2  0  0  0  0
 14 42  1  0  0  0  0
 15 16  1  0  0  0  0
 16 43  1  0  0  0  0
 16 44  1  0  0  0  0
 17 18  1  0  0  0  0
 17 45  1  0  0  0  0
 18 19  1  0  0  0  0
 18 46  1  0  0  0  0
 18 47  1  0  0  0  0
 19 20  2  0  0  0  0
 19 30  1  0  0  0  0
 20 21  1  0  0  0  0
 20 48  1  0  0  0  0
 21 22  2  0  0  0  0
 21 49  1  0  0  0  0
 22 23  1  0  0  0  0
 22 29  1  0  0  0  0
 23 24  2  0  0  0  0
 23 28  1  0  0  0  0
 24 25  1  0  0  0  0
 24 50  1  0  0  0  0
 25 26  2  0  0  0  0
 25 51  1  0  0  0  0
 26 27  1  0  0  0  0
 26 52  1  0  0  0  0
 27 28  2  0  0  0  0
 27 53  1  0  0  0  0
 28 54  1  0  0  0  0
 29 30  2  0  0  0  0
 29 55  1  0  0  0  0
 30 31  1  0  0  0  0
M  END
$$$$
