
 OpenBabel01122422423D

 46 48  0  0  1  0  0  0  0  0999 V2000
    2.6414   -2.5594    3.3443 N   0  0  0  0  0  0  0  0  0  0  0  0
    2.6460   -1.3084    2.5677 C   0  0  0  0  0  0  0  0  0  0  0  0
    3.1733   -1.4632    1.0982 C   0  0  3  0  0  0  0  0  0  0  0  0
    2.5273   -2.5245    0.2955 N   0  0  0  0  0  0  0  0  0  0  0  0
    1.1801   -2.8333    0.3961 C   0  0  0  0  0  0  0  0  0  0  0  0
    0.4738   -2.2413    1.1913 O   0  0  0  0  0  0  0  0  0  0  0  0
    0.6344   -3.9818   -0.4022 C   0  0  0  0  0  0  0  0  0  0  0  0
    1.5597   -4.9808   -0.7798 C   0  0  0  0  0  0  0  0  0  0  0  0
    1.1329   -6.1553   -1.3872 C   0  0  0  0  0  0  0  0  0  0  0  0
    2.0336   -7.0969   -1.6963 F   0  0  0  0  0  0  0  0  0  0  0  0
   -0.2109   -6.3693   -1.6262 C   0  0  0  0  0  0  0  0  0  0  0  0
   -0.6271   -7.5215   -2.1668 F   0  0  0  0  0  0  0  0  0  0  0  0
   -1.1472   -5.4052   -1.2760 C   0  0  0  0  0  0  0  0  0  0  0  0
   -0.7516   -4.1900   -0.6754 C   0  0  0  0  0  0  0  0  0  0  0  0
   -1.8736   -3.2717   -0.2709 C   0  0  0  0  0  0  0  0  0  0  0  0
   -1.8404   -2.6357    0.7742 O   0  0  0  0  0  0  0  0  0  0  0  0
   -3.1654   -3.1773   -1.0109 C   0  0  0  0  0  0  0  0  0  0  0  0
   -3.2787   -3.3060   -2.3956 C   0  0  0  0  0  0  0  0  0  0  0  0
   -4.5366   -3.1904   -2.9965 C   0  0  0  0  0  0  0  0  0  0  0  0
   -5.6782   -2.9218   -2.2273 C   0  0  0  0  0  0  0  0  0  0  0  0
   -5.5641   -2.7791   -0.8475 C   0  0  0  0  0  0  0  0  0  0  0  0
   -4.3101   -2.9084   -0.2462 C   0  0  0  0  0  0  0  0  0  0  0  0
    3.1839   -0.1427    0.3520 C   0  0  0  0  0  0  0  0  0  0  0  0
    1.9940    0.5614    0.1183 C   0  0  0  0  0  0  0  0  0  0  0  0
    2.0072    1.7844   -0.5618 C   0  0  0  0  0  0  0  0  0  0  0  0
    3.2110    2.3233   -1.0174 C   0  0  0  0  0  0  0  0  0  0  0  0
    4.4023    1.6372   -0.7891 C   0  0  0  0  0  0  0  0  0  0  0  0
    4.3828    0.4192   -0.1083 C   0  0  0  0  0  0  0  0  0  0  0  0
    5.5464   -0.2126    0.1005 F   0  0  0  0  0  0  0  0  0  0  0  0
    1.9489   -3.1732    2.9058 H   0  0  0  0  0  0  0  0  0  0  0  0
    3.5400   -3.0227    3.2570 H   0  0  0  0  0  0  0  0  0  0  0  0
    3.2594   -0.5732    3.1028 H   0  0  0  0  0  0  0  0  0  0  0  0
    1.6328   -0.8880    2.5899 H   0  0  0  0  0  0  0  0  0  0  0  0
    4.2108   -1.8118    1.1920 H   0  0  0  0  0  0  0  0  0  0  0  0
    3.0732   -2.8733   -0.4777 H   0  0  0  0  0  0  0  0  0  0  0  0
    2.6186   -4.9058   -0.5528 H   0  0  0  0  0  0  0  0  0  0  0  0
   -2.1936   -5.6502   -1.4394 H   0  0  0  0  0  0  0  0  0  0  0  0
   -2.4095   -3.4799   -3.0230 H   0  0  0  0  0  0  0  0  0  0  0  0
   -4.6353   -3.2959   -4.0779 H   0  0  0  0  0  0  0  0  0  0  0  0
   -6.6427   -2.8174   -2.7049 H   0  0  0  0  0  0  0  0  0  0  0  0
   -6.4361   -2.5564   -0.2434 H   0  0  0  0  0  0  0  0  0  0  0  0
   -4.2348   -2.7793    0.8346 H   0  0  0  0  0  0  0  0  0  0  0  0
    1.0447    0.1657    0.4658 H   0  0  0  0  0  0  0  0  0  0  0  0
    1.0739    2.3157   -0.7253 H   0  0  0  0  0  0  0  0  0  0  0  0
    3.2161    3.2737   -1.5424 H   0  0  0  0  0  0  0  0  0  0  0  0
    5.3459    2.0480   -1.1359 H   0  0  0  0  0  0  0  0  0  0  0  0
  1  2  1  0  0  0  0
  1 30  1  0  0  0  0
  1 31  1  0  0  0  0
  2  3  1  0  0  0  0
  2 32  1  0  0  0  0
  2 33  1  0  0  0  0
  3  4  1  0  0  0  0
  3 23  1  0  0  0  0
  3 34  1  0  0  0  0
  4  5  1  0  0  0  0
  4 35  1  0  0  0  0
  5  6  2  0  0  0  0
  5  7  1  0  0  0  0
  7  8  2  0  0  0  0
  7 14  1  0  0  0  0
  8  9  1  0  0  0  0
  8 36  1  0  0  0  0
  9 10  1  0  0  0  0
  9 11  2  0  0  0  0
 11 12  1  0  0  0  0
 11 13  1  0  0  0  0
 13 14  2  0  0  0  0
 13 37  1  0  0  0  0
 14 15  1  0  0  0  0
 15 16  2  0  0  0  0
 15 17  1  0  0  0  0
 17 18  2  0  0  0  0
 17 22  1  0  0  0  0
 18 19  1  0  0  0  0
 18 38  1  0  0  0  0
 19 20  2  0  0  0  0
 19 39  1  0  0  0  0
 20 21  1  0  0  0  0
 20 40  1  0  0  0  0
 21 22  2  0  0  0  0
 21 41  1  0  0  0  0
 22 42  1  0  0  0  0
 23 24  2  0  0  0  0
 23 28  1  0  0  0  0
 24 25  1  0  0  0  0
 24 43  1  0  0  0  0
 25 26  2  0  0  0  0
 25 44  1  0  0  0  0
 26 27  1  0  0  0  0
 26 45  1  0  0  0  0
 27 28  2  0  0  0  0
 27 46  1  0  0  0  0
 28 29  1  0  0  0  0
M  END
$$$$
