
 OpenBabel01122422423D

 50 53  0  0  0  0  0  0  0  0999 V2000
    9.7764    4.6216   -4.2172 C   0  0  0  0  0  0  0  0  0  0  0  0
    9.8779    3.2250   -4.4670 O   0  0  0  0  0  0  0  0  0  0  0  0
    9.3179    2.3911   -3.5374 C   0  0  0  0  0  0  0  0  0  0  0  0
    8.7008    2.7911   -2.3495 C   0  0  0  0  0  0  0  0  0  0  0  0
    8.1509    1.8411   -1.4838 C   0  0  0  0  0  0  0  0  0  0  0  0
    8.2202    0.4880   -1.8136 C   0  0  0  0  0  0  0  0  0  0  0  0
    7.6572   -0.4696   -0.9643 N   0  0  0  0  0  0  0  0  0  0  0  0
    7.6650   -1.8142   -1.2252 C   0  0  0  0  0  0  0  0  0  0  0  0
    7.1324   -2.6119   -0.4594 O   0  0  0  0  0  0  0  0  0  0  0  0
    8.3429   -2.2661   -2.4801 C   0  0  0  0  0  0  0  0  0  0  0  0
    8.3359   -3.7552   -2.6960 C   0  0  0  0  0  0  0  0  0  0  0  0
    8.9750   -4.0977   -3.9430 O   0  0  0  0  0  0  0  0  0  0  0  0
   10.0525   -4.9121   -3.8702 C   0  0  0  0  0  0  0  0  0  0  0  0
   10.5268   -5.3970   -2.8541 O   0  0  0  0  0  0  0  0  0  0  0  0
   10.6327   -5.1436   -5.2238 C   0  0  0  0  0  0  0  0  0  0  0  0
   10.0774   -4.5909   -6.3842 C   0  0  0  0  0  0  0  0  0  0  0  0
   10.6624   -4.8439   -7.6264 C   0  0  0  0  0  0  0  0  0  0  0  0
   11.8152   -5.6272   -7.7146 C   0  0  0  0  0  0  0  0  0  0  0  0
   12.4131   -6.1505   -6.5598 C   0  0  0  0  0  0  0  0  0  0  0  0
   13.7412   -6.8672   -6.6441 C   0  0  0  0  0  0  0  0  0  0  0  0
   13.6945   -8.3631   -6.8428 C   0  0  0  0  0  0  0  0  0  0  0  0
   13.6500   -9.2204   -5.7438 C   0  0  0  0  0  0  0  0  0  0  0  0
   13.7652  -10.5929   -5.9530 C   0  0  0  0  0  0  0  0  0  0  0  0
   13.9039  -11.0755   -7.2479 C   0  0  0  0  0  0  0  0  0  0  0  0
   13.9071  -10.1613   -8.2871 C   0  0  0  0  0  0  0  0  0  0  0  0
   13.8088   -8.8238   -8.1151 N   0  0  0  0  0  0  0  0  0  0  0  0
   11.7964   -5.9249   -5.3192 C   0  0  0  0  0  0  0  0  0  0  0  0
    8.8958   -1.3550   -3.3021 C   0  0  0  0  0  0  0  0  0  0  0  0
    8.8426    0.0732   -2.9938 C   0  0  0  0  0  0  0  0  0  0  0  0
    9.3921    1.0306   -3.8499 C   0  0  0  0  0  0  0  0  0  0  0  0
   10.2110    5.1497   -5.0711 H   0  0  0  0  0  0  0  0  0  0  0  0
   10.3470    4.9002   -3.3248 H   0  0  0  0  0  0  0  0  0  0  0  0
    8.7304    4.9352   -4.1315 H   0  0  0  0  0  0  0  0  0  0  0  0
    8.6287    3.8366   -2.0673 H   0  0  0  0  0  0  0  0  0  0  0  0
    7.6714    2.1688   -0.5669 H   0  0  0  0  0  0  0  0  0  0  0  0
    7.1971   -0.1884   -0.1086 H   0  0  0  0  0  0  0  0  0  0  0  0
    7.3007   -4.1068   -2.7737 H   0  0  0  0  0  0  0  0  0  0  0  0
    8.7955   -4.2608   -1.8397 H   0  0  0  0  0  0  0  0  0  0  0  0
    9.1924   -3.9615   -6.3392 H   0  0  0  0  0  0  0  0  0  0  0  0
   10.2276   -4.4183   -8.5280 H   0  0  0  0  0  0  0  0  0  0  0  0
   12.2642   -5.8071   -8.6907 H   0  0  0  0  0  0  0  0  0  0  0  0
   14.3288   -6.6429   -5.7437 H   0  0  0  0  0  0  0  0  0  0  0  0
   14.3253   -6.4275   -7.4644 H   0  0  0  0  0  0  0  0  0  0  0  0
   13.5650   -8.8305   -4.7346 H   0  0  0  0  0  0  0  0  0  0  0  0
   13.7641  -11.2780   -5.1099 H   0  0  0  0  0  0  0  0  0  0  0  0
   14.0113  -12.1366   -7.4427 H   0  0  0  0  0  0  0  0  0  0  0  0
   14.0063  -10.4890   -9.3179 H   0  0  0  0  0  0  0  0  0  0  0  0
   12.2406   -6.3340   -4.4129 H   0  0  0  0  0  0  0  0  0  0  0  0
    9.3956   -1.6512   -4.2178 H   0  0  0  0  0  0  0  0  0  0  0  0
    9.8807    0.7262   -4.7749 H   0  0  0  0  0  0  0  0  0  0  0  0
  1  2  1  0  0  0  0
  1 31  1  0  0  0  0
  1 32  1  0  0  0  0
  1 33  1  0  0  0  0
  2  3  1  0  0  0  0
  3  4  2  0  0  0  0
  3 30  1  0  0  0  0
  4  5  1  0  0  0  0
  4 34  1  0  0  0  0
  5  6  2  0  0  0  0
  5 35  1  0  0  0  0
  6  7  1  0  0  0  0
  6 29  1  0  0  0  0
  7  8  1  0  0  0  0
  7 36  1  0  0  0  0
  8  9  2  0  0  0  0
  8 10  1  0  0  0  0
 10 11  1  0  0  0  0
 10 28  2  0  0  0  0
 11 12  1  0  0  0  0
 11 37  1  0  0  0  0
 11 38  1  0  0  0  0
 12 13  1  0  0  0  0
 13 14  2  0  0  0  0
 13 15  1  0  0  0  0
 15 16  2  0  0  0  0
 15 27  1  0  0  0  0
 16 17  1  0  0  0  0
 16 39  1  0  0  0  0
 17 18  2  0  0  0  0
 17 40  1  0  0  0  0
 18 19  1  0  0  0  0
 18 41  1  0  0  0  0
 19 20  1  0  0  0  0
 19 27  2  0  0  0  0
 20 21  1  0  0  0  0
 20 42  1  0  0  0  0
 20 43  1  0  0  0  0
 21 22  2  0  0  0  0
 21 26  1  0  0  0  0
 22 23  1  0  0  0  0
 22 44  1  0  0  0  0
 23 24  2  0  0  0  0
 23 45  1  0  0  0  0
 24 25  1  0  0  0  0
 24 46  1  0  0  0  0
 25 26  2  0  0  0  0
 25 47  1  0  0  0  0
 27 48  1  0  0  0  0
 28 29  1  0  0  0  0
 28 49  1  0  0  0  0
 29 30  2  0  0  0  0
 30 50  1  0  0  0  0
M  END
$$$$
