
 OpenBabel01122422353D

 50 53  0  0  0  0  0  0  0  0999 V2000
    0.4625   -0.1968    0.7586 C   0  0  0  0  0  0  0  0  0  0  0  0
    1.9184   -0.0507    0.4981 C   0  0  0  0  0  0  0  0  0  0  0  0
    2.6284    1.0903    0.4695 C   0  0  0  0  0  0  0  0  0  0  0  0
    3.9535    0.7882    0.3198 N   0  0  0  0  0  0  0  0  0  0  0  0
    4.1217   -0.6070    0.2641 C   0  0  0  0  0  0  0  0  0  0  0  0
    5.1839   -1.1876    0.1058 O   0  0  0  0  0  0  0  0  0  0  0  0
    2.7949   -1.1251    0.3751 N   0  0  0  0  0  0  0  0  0  0  0  0
    2.5118   -2.4964    0.2291 C   0  0  0  0  0  0  0  0  0  0  0  0
    1.6415   -2.9325   -0.7753 C   0  0  0  0  0  0  0  0  0  0  0  0
    1.4003   -4.2928   -0.9593 C   0  0  0  0  0  0  0  0  0  0  0  0
    2.0153   -5.2274   -0.1313 C   0  0  0  0  0  0  0  0  0  0  0  0
    2.9049   -4.8102    0.8666 C   0  0  0  0  0  0  0  0  0  0  0  0
    3.6400   -5.7623    1.7573 C   0  0  0  0  0  0  0  0  0  0  0  0
    4.3861   -5.3391    2.6227 O   0  0  0  0  0  0  0  0  0  0  0  0
    3.4359   -7.1154    1.5360 N   0  0  0  0  0  0  0  0  0  0  0  0
    4.1440   -8.0855    2.3377 C   0  0  0  0  0  0  0  0  0  0  0  0
    5.4746   -8.4791    1.7431 C   0  0  0  0  0  0  0  0  0  0  0  0
    6.5992   -7.7532    2.1163 C   0  0  0  0  0  0  0  0  0  0  0  0
    7.8394   -8.1079    1.5970 C   0  0  0  0  0  0  0  0  0  0  0  0
    9.0203   -7.4765    1.9177 O   0  0  0  0  0  0  0  0  0  0  0  0
    8.9995   -6.1310    2.2041 C   0  0  0  0  0  0  0  0  0  0  0  0
    8.0990   -5.2381    1.6062 C   0  0  0  0  0  0  0  0  0  0  0  0
    8.1307   -3.8843    1.9264 C   0  0  0  0  0  0  0  0  0  0  0  0
    9.0707   -3.4231    2.8435 C   0  0  0  0  0  0  0  0  0  0  0  0
    9.1077   -2.1208    3.1404 F   0  0  0  0  0  0  0  0  0  0  0  0
    9.9670   -4.3074    3.4355 C   0  0  0  0  0  0  0  0  0  0  0  0
   10.8540   -3.8568    4.3350 F   0  0  0  0  0  0  0  0  0  0  0  0
    9.9510   -5.6601    3.1125 C   0  0  0  0  0  0  0  0  0  0  0  0
    7.9254   -9.1858    0.7280 C   0  0  0  0  0  0  0  0  0  0  0  0
    6.7569   -9.8475    0.3912 C   0  0  0  0  0  0  0  0  0  0  0  0
    5.5341   -9.5217    0.8744 N   0  0  0  0  0  0  0  0  0  0  0  0
    3.1482   -3.4385    1.0421 C   0  0  0  0  0  0  0  0  0  0  0  0
    0.0035    0.7723    0.9824 H   0  0  0  0  0  0  0  0  0  0  0  0
    0.2921   -0.8433    1.6267 H   0  0  0  0  0  0  0  0  0  0  0  0
   -0.0618   -0.6176   -0.1029 H   0  0  0  0  0  0  0  0  0  0  0  0
    2.2847    2.1088    0.5688 H   0  0  0  0  0  0  0  0  0  0  0  0
    4.7241    1.4352    0.2480 H   0  0  0  0  0  0  0  0  0  0  0  0
    1.2021   -2.2213   -1.4707 H   0  0  0  0  0  0  0  0  0  0  0  0
    0.7512   -4.6259   -1.7654 H   0  0  0  0  0  0  0  0  0  0  0  0
    1.7923   -6.2761   -0.3028 H   0  0  0  0  0  0  0  0  0  0  0  0
    2.9371   -7.4753    0.7474 H   0  0  0  0  0  0  0  0  0  0  0  0
    3.5019   -8.9656    2.4396 H   0  0  0  0  0  0  0  0  0  0  0  0
    4.2998   -7.6669    3.3388 H   0  0  0  0  0  0  0  0  0  0  0  0
    6.4706   -6.9073    2.7798 H   0  0  0  0  0  0  0  0  0  0  0  0
    7.3413   -5.5931    0.9153 H   0  0  0  0  0  0  0  0  0  0  0  0
    7.4307   -3.1923    1.4689 H   0  0  0  0  0  0  0  0  0  0  0  0
   10.6579   -6.3343    3.5826 H   0  0  0  0  0  0  0  0  0  0  0  0
    8.8779   -9.4868    0.3078 H   0  0  0  0  0  0  0  0  0  0  0  0
    6.7762  -10.6822   -0.3019 H   0  0  0  0  0  0  0  0  0  0  0  0
    3.8242   -3.1050    1.8292 H   0  0  0  0  0  0  0  0  0  0  0  0
  1  2  1  0  0  0  0
  1 33  1  0  0  0  0
  1 34  1  0  0  0  0
  1 35  1  0  0  0  0
  2  3  2  0  0  0  0
  2  7  1  0  0  0  0
  3  4  1  0  0  0  0
  3 36  1  0  0  0  0
  4  5  1  0  0  0  0
  4 37  1  0  0  0  0
  5  6  2  0  0  0  0
  5  7  1  0  0  0  0
  7  8  1  0  0  0  0
  8  9  2  0  0  0  0
  8 32  1  0  0  0  0
  9 10  1  0  0  0  0
  9 38  1  0  0  0  0
 10 11  2  0  0  0  0
 10 39  1  0  0  0  0
 11 12  1  0  0  0  0
 11 40  1  0  0  0  0
 12 13  1  0  0  0  0
 12 32  2  0  0  0  0
 13 14  2  0  0  0  0
 13 15  1  0  0  0  0
 15 16  1  0  0  0  0
 15 41  1  0  0  0  0
 16 17  1  0  0  0  0
 16 42  1  0  0  0  0
 16 43  1  0  0  0  0
 17 18  2  0  0  0  0
 17 31  1  0  0  0  0
 18 19  1  0  0  0  0
 18 44  1  0  0  0  0
 19 20  1  0  0  0  0
 19 29  2  0  0  0  0
 20 21  1  0  0  0  0
 21 22  2  0  0  0  0
 21 28  1  0  0  0  0
 22 23  1  0  0  0  0
 22 45  1  0  0  0  0
 23 24  2  0  0  0  0
 23 46  1  0  0  0  0
 24 25  1  0  0  0  0
 24 26  1  0  0  0  0
 26 27  1  0  0  0  0
 26 28  2  0  0  0  0
 28 47  1  0  0  0  0
 29 30  1  0  0  0  0
 29 48  1  0  0  0  0
 30 31  2  0  0  0  0
 30 49  1  0  0  0  0
 32 50  1  0  0  0  0
M  END
$$$$
