
 OpenBabel01122422423D

 45 48  0  0  0  0  0  0  0  0999 V2000
    1.0397   -0.3067   -0.6737 O   0  0  0  0  0  0  0  0  0  0  0  0
    2.1774   -0.1646   -0.2362 C   0  0  0  0  0  0  0  0  0  0  0  0
    2.7895   -0.9380    0.7330 N   0  0  0  0  0  0  0  0  0  0  0  0
    2.1998   -2.0699    1.3397 C   0  0  0  0  0  0  0  0  0  0  0  0
    1.0898   -2.7284    0.8048 C   0  0  0  0  0  0  0  0  0  0  0  0
    0.5232   -3.8212    1.4615 C   0  0  0  0  0  0  0  0  0  0  0  0
    1.0733   -4.2828    2.6509 C   0  0  0  0  0  0  0  0  0  0  0  0
    0.4483   -5.3669    3.1980 O   0  0  0  0  0  0  0  0  0  0  0  0
    1.2785   -6.1924    4.0163 C   0  0  0  0  0  0  0  0  0  0  0  0
    0.7658   -7.6076    4.0248 C   0  0  0  0  0  0  0  0  0  0  0  0
    0.0547   -8.1514    2.9458 C   0  0  0  0  0  0  0  0  0  0  0  0
   -0.3233   -9.4957    2.9539 C   0  0  0  0  0  0  0  0  0  0  0  0
    0.0145  -10.3114    4.0333 C   0  0  0  0  0  0  0  0  0  0  0  0
    0.7249   -9.7839    5.1099 C   0  0  0  0  0  0  0  0  0  0  0  0
    1.0974   -8.4420    5.0940 C   0  0  0  0  0  0  0  0  0  0  0  0
    1.8066   -7.9558    6.1232 F   0  0  0  0  0  0  0  0  0  0  0  0
    2.1786   -3.6305    3.1992 C   0  0  0  0  0  0  0  0  0  0  0  0
    2.7521   -2.5405    2.5342 C   0  0  0  0  0  0  0  0  0  0  0  0
    2.9356    0.9905   -0.7469 C   0  0  0  0  0  0  0  0  0  0  0  0
    2.2279    2.1482   -1.0675 C   0  0  0  0  0  0  0  0  0  0  0  0
    2.8894    3.2078   -1.6737 C   0  0  0  0  0  0  0  0  0  0  0  0
    4.2502    3.0877   -1.9478 C   0  0  0  0  0  0  0  0  0  0  0  0
    4.9272    4.1757   -2.6684 C   0  0  0  0  0  0  0  0  0  0  0  0
    6.2307    4.2018   -3.0007 N   0  0  0  0  0  0  0  0  0  0  0  0
    6.3307    5.3588   -3.6691 N   0  0  0  0  0  0  0  0  0  0  0  0
    5.1397    6.0035   -3.7290 C   0  0  0  0  0  0  0  0  0  0  0  0
    4.2327    5.2948   -3.1052 N   0  0  0  0  0  0  0  0  0  0  0  0
    4.9650    1.9737   -1.6134 N   0  0  0  0  0  0  0  0  0  0  0  0
    4.2906    0.9481   -1.0340 C   0  0  0  0  0  0  0  0  0  0  0  0
    3.6408   -0.5927    1.1576 H   0  0  0  0  0  0  0  0  0  0  0  0
    0.6412   -2.4284   -0.1371 H   0  0  0  0  0  0  0  0  0  0  0  0
   -0.3453   -4.3140    1.0294 H   0  0  0  0  0  0  0  0  0  0  0  0
    1.2722   -5.7796    5.0317 H   0  0  0  0  0  0  0  0  0  0  0  0
    2.3061   -6.2331    3.6325 H   0  0  0  0  0  0  0  0  0  0  0  0
   -0.2012   -7.5329    2.0874 H   0  0  0  0  0  0  0  0  0  0  0  0
   -0.8729   -9.9062    2.1102 H   0  0  0  0  0  0  0  0  0  0  0  0
   -0.2708  -11.3599    4.0319 H   0  0  0  0  0  0  0  0  0  0  0  0
    1.0043  -10.4061    5.9512 H   0  0  0  0  0  0  0  0  0  0  0  0
    2.6034   -3.9400    4.1478 H   0  0  0  0  0  0  0  0  0  0  0  0
    3.6127   -2.0536    2.9847 H   0  0  0  0  0  0  0  0  0  0  0  0
    1.1586    2.2117   -0.8780 H   0  0  0  0  0  0  0  0  0  0  0  0
    2.3378    4.1000   -1.9556 H   0  0  0  0  0  0  0  0  0  0  0  0
    7.2275    5.6344   -4.0513 H   0  0  0  0  0  0  0  0  0  0  0  0
    4.9930    6.9524   -4.2246 H   0  0  0  0  0  0  0  0  0  0  0  0
    4.8918    0.0625   -0.8495 H   0  0  0  0  0  0  0  0  0  0  0  0
  1  2  2  0  0  0  0
  2  3  1  0  0  0  0
  2 19  1  0  0  0  0
  3  4  1  0  0  0  0
  3 30  1  0  0  0  0
  4  5  2  0  0  0  0
  4 18  1  0  0  0  0
  5  6  1  0  0  0  0
  5 31  1  0  0  0  0
  6  7  2  0  0  0  0
  6 32  1  0  0  0  0
  7  8  1  0  0  0  0
  7 17  1  0  0  0  0
  8  9  1  0  0  0  0
  9 10  1  0  0  0  0
  9 33  1  0  0  0  0
  9 34  1  0  0  0  0
 10 11  2  0  0  0  0
 10 15  1  0  0  0  0
 11 12  1  0  0  0  0
 11 35  1  0  0  0  0
 12 13  2  0  0  0  0
 12 36  1  0  0  0  0
 13 14  1  0  0  0  0
 13 37  1  0  0  0  0
 14 15  2  0  0  0  0
 14 38  1  0  0  0  0
 15 16  1  0  0  0  0
 17 18  2  0  0  0  0
 17 39  1  0  0  0  0
 18 40  1  0  0  0  0
 19 20  2  0  0  0  0
 19 29  1  0  0  0  0
 20 21  1  0  0  0  0
 20 41  1  0  0  0  0
 21 22  2  0  0  0  0
 21 42  1  0  0  0  0
 22 23  1  0  0  0  0
 22 28  1  0  0  0  0
 23 24  2  0  0  0  0
 23 27  1  0  0  0  0
 24 25  1  0  0  0  0
 25 26  1  0  0  0  0
 25 43  1  0  0  0  0
 26 27  2  0  0  0  0
 26 44  1  0  0  0  0
 28 29  2  0  0  0  0
 29 45  1  0  0  0  0
M  END
$$$$
