
 OpenBabel01122422423D

 49 52  0  0  0  0  0  0  0  0999 V2000
    0.6362    0.1843   -0.6507 O   0  0  0  0  0  0  0  0  0  0  0  0
    1.0161    0.7028   -1.6984 C   0  0  0  0  0  0  0  0  0  0  0  0
    1.9264    1.7311   -1.7353 N   0  0  0  0  0  0  0  0  0  0  0  0
    2.4685    2.2501   -0.5053 C   0  0  0  0  0  0  0  0  0  0  0  0
    3.3328    3.4572   -0.7236 C   0  0  0  0  0  0  0  0  0  0  0  0
    2.7542    4.7302   -0.7334 C   0  0  0  0  0  0  0  0  0  0  0  0
    3.5441    5.8698   -0.8950 C   0  0  0  0  0  0  0  0  0  0  0  0
    4.9233    5.7642   -1.0652 C   0  0  0  0  0  0  0  0  0  0  0  0
    5.7766    6.8765   -1.2172 N   0  0  0  0  0  0  0  0  0  0  0  0
    5.4190    8.2115   -1.2508 C   0  0  0  0  0  0  0  0  0  0  0  0
    4.2733    8.6478   -1.1867 O   0  0  0  0  0  0  0  0  0  0  0  0
    6.5413    9.2023   -1.3581 C   0  0  0  0  0  0  0  0  0  0  0  0
    6.1853   10.5634   -1.3886 C   0  0  0  0  0  0  0  0  0  0  0  0
    7.1602   11.5613   -1.4272 C   0  0  0  0  0  0  0  0  0  0  0  0
    8.5065   11.2129   -1.4370 C   0  0  0  0  0  0  0  0  0  0  0  0
    8.8807    9.8685   -1.4318 C   0  0  0  0  0  0  0  0  0  0  0  0
    7.9032    8.8677   -1.4000 C   0  0  0  0  0  0  0  0  0  0  0  0
    8.3077    7.5565   -1.4084 O   0  0  0  0  0  0  0  0  0  0  0  0
    5.5051    4.4899   -1.0714 C   0  0  0  0  0  0  0  0  0  0  0  0
    4.7145    3.3442   -0.9098 C   0  0  0  0  0  0  0  0  0  0  0  0
    0.5290    0.2637   -2.9938 C   0  0  0  0  0  0  0  0  0  0  0  0
   -0.4040   -0.7253   -3.2155 C   0  0  0  0  0  0  0  0  0  0  0  0
   -0.5306   -0.8041   -4.5787 N   0  0  0  0  0  0  0  0  0  0  0  0
   -1.3493   -1.6744   -5.3284 C   0  0  0  0  0  0  0  0  0  0  0  0
   -2.2265   -2.5729   -4.7119 C   0  0  0  0  0  0  0  0  0  0  0  0
   -2.9997   -3.4218   -5.5009 C   0  0  0  0  0  0  0  0  0  0  0  0
   -2.8683   -3.3437   -6.8771 C   0  0  0  0  0  0  0  0  0  0  0  0
   -2.0359   -2.4833   -7.5017 N   0  0  0  0  0  0  0  0  0  0  0  0
   -1.2943   -1.6627   -6.7168 C   0  0  0  0  0  0  0  0  0  0  0  0
    0.2910    0.1067   -5.1590 N   0  0  0  0  0  0  0  0  0  0  0  0
    0.9357    0.7660   -4.2020 N   0  0  0  0  0  0  0  0  0  0  0  0
    2.2033    2.1230   -2.6291 H   0  0  0  0  0  0  0  0  0  0  0  0
    3.0323    1.4517   -0.0094 H   0  0  0  0  0  0  0  0  0  0  0  0
    1.6343    2.5016    0.1617 H   0  0  0  0  0  0  0  0  0  0  0  0
    1.6815    4.8506   -0.5980 H   0  0  0  0  0  0  0  0  0  0  0  0
    3.0427    6.8315   -0.8723 H   0  0  0  0  0  0  0  0  0  0  0  0
    6.7705    6.6849   -1.2996 H   0  0  0  0  0  0  0  0  0  0  0  0
    5.1358   10.8552   -1.3723 H   0  0  0  0  0  0  0  0  0  0  0  0
    6.8620   12.6073   -1.4403 H   0  0  0  0  0  0  0  0  0  0  0  0
    9.2661   11.9908   -1.4488 H   0  0  0  0  0  0  0  0  0  0  0  0
    9.9385    9.6230   -1.4443 H   0  0  0  0  0  0  0  0  0  0  0  0
    9.2786    7.5321   -1.4860 H   0  0  0  0  0  0  0  0  0  0  0  0
    6.5776    4.3716   -1.1973 H   0  0  0  0  0  0  0  0  0  0  0  0
    5.1902    2.3651   -0.9146 H   0  0  0  0  0  0  0  0  0  0  0  0
   -0.9419   -1.3519   -2.5222 H   0  0  0  0  0  0  0  0  0  0  0  0
   -2.3357   -2.6348   -3.6336 H   0  0  0  0  0  0  0  0  0  0  0  0
   -3.6889   -4.1286   -5.0513 H   0  0  0  0  0  0  0  0  0  0  0  0
   -3.4461   -3.9898   -7.5322 H   0  0  0  0  0  0  0  0  0  0  0  0
   -0.6396   -0.9926   -7.2694 H   0  0  0  0  0  0  0  0  0  0  0  0
  1  2  2  0  0  0  0
  2  3  1  0  0  0  0
  2 21  1  0  0  0  0
  3  4  1  0  0  0  0
  3 32  1  0  0  0  0
  4  5  1  0  0  0  0
  4 33  1  0  0  0  0
  4 34  1  0  0  0  0
  5  6  2  0  0  0  0
  5 20  1  0  0  0  0
  6  7  1  0  0  0  0
  6 35  1  0  0  0  0
  7  8  2  0  0  0  0
  7 36  1  0  0  0  0
  8  9  1  0  0  0  0
  8 19  1  0  0  0  0
  9 10  1  0  0  0  0
  9 37  1  0  0  0  0
 10 11  2  0  0  0  0
 10 12  1  0  0  0  0
 12 13  2  0  0  0  0
 12 17  1  0  0  0  0
 13 14  1  0  0  0  0
 13 38  1  0  0  0  0
 14 15  2  0  0  0  0
 14 39  1  0  0  0  0
 15 16  1  0  0  0  0
 15 40  1  0  0  0  0
 16 17  2  0  0  0  0
 16 41  1  0  0  0  0
 17 18  1  0  0  0  0
 18 42  1  0  0  0  0
 19 20  2  0  0  0  0
 19 43  1  0  0  0  0
 20 44  1  0  0  0  0
 21 22  2  0  0  0  0
 21 31  1  0  0  0  0
 22 23  1  0  0  0  0
 22 45  1  0  0  0  0
 23 24  1  0  0  0  0
 23 30  1  0  0  0  0
 24 25  2  0  0  0  0
 24 29  1  0  0  0  0
 25 26  1  0  0  0  0
 25 46  1  0  0  0  0
 26 27  2  0  0  0  0
 26 47  1  0  0  0  0
 27 28  1  0  0  0  0
 27 48  1  0  0  0  0
 28 29  2  0  0  0  0
 29 49  1  0  0  0  0
 30 31  2  0  0  0  0
M  END
$$$$
