
 OpenBabel01122422423D

 44 47  0  0  0  0  0  0  0  0999 V2000
    1.1000    0.0438   -0.0851 O   0  0  0  0  0  0  0  0  0  0  0  0
    2.3213   -0.0175    0.0066 C   0  0  0  0  0  0  0  0  0  0  0  0
    2.9768   -0.0127    1.2144 N   0  0  0  0  0  0  0  0  0  0  0  0
    2.2636    0.1218    2.4614 C   0  0  0  0  0  0  0  0  0  0  0  0
    3.0470   -0.5672    3.5129 C   0  0  0  0  0  0  0  0  0  0  0  0
    4.0445   -0.0576    4.3190 C   0  0  0  0  0  0  0  0  0  0  0  0
    4.4969   -1.0838    5.1222 N   0  0  0  0  0  0  0  0  0  0  0  0
    5.5544   -1.0490    6.0749 C   0  0  0  0  0  0  0  0  0  0  0  0
    6.2582    0.1366    6.3328 C   0  0  0  0  0  0  0  0  0  0  0  0
    7.3282    0.1345    7.2338 C   0  0  0  0  0  0  0  0  0  0  0  0
    7.6958   -1.0452    7.8778 C   0  0  0  0  0  0  0  0  0  0  0  0
    9.0346   -1.0451    8.9577 Cl  0  0  0  0  0  0  0  0  0  0  0  0
    6.9908   -2.2234    7.6455 C   0  0  0  0  0  0  0  0  0  0  0  0
    5.9177   -2.2265    6.7491 C   0  0  0  0  0  0  0  0  0  0  0  0
    3.8112   -2.2303    4.8790 N   0  0  0  0  0  0  0  0  0  0  0  0
    2.9492   -1.9133    3.9135 C   0  0  0  0  0  0  0  0  0  0  0  0
    3.1535   -0.0972   -1.2257 C   0  0  0  0  0  0  0  0  0  0  0  0
    2.5126   -0.1462   -2.4677 C   0  0  0  0  0  0  0  0  0  0  0  0
    3.2570   -0.2192   -3.6551 C   0  0  0  0  0  0  0  0  0  0  0  0
    4.6658   -0.2370   -3.6387 C   0  0  0  0  0  0  0  0  0  0  0  0
    5.4560   -0.2952   -4.8814 C   0  0  0  0  0  0  0  0  0  0  0  0
    5.0551    0.2825   -6.0772 C   0  0  0  0  0  0  0  0  0  0  0  0
    5.7634    0.2573   -7.2287 N   0  0  0  0  0  0  0  0  0  0  0  0
    6.9409   -0.3789   -7.1723 C   0  0  0  0  0  0  0  0  0  0  0  0
    7.4524   -0.9794   -6.0905 N   0  0  0  0  0  0  0  0  0  0  0  0
    6.6908   -0.9235   -4.9755 C   0  0  0  0  0  0  0  0  0  0  0  0
    5.2888   -0.1894   -2.3806 C   0  0  0  0  0  0  0  0  0  0  0  0
    4.5445   -0.1247   -1.2003 C   0  0  0  0  0  0  0  0  0  0  0  0
    5.2208   -0.0807   -0.0417 F   0  0  0  0  0  0  0  0  0  0  0  0
    3.9889    0.0363    1.2382 H   0  0  0  0  0  0  0  0  0  0  0  0
    1.2565   -0.2992    2.3761 H   0  0  0  0  0  0  0  0  0  0  0  0
    2.1704    1.1914    2.6763 H   0  0  0  0  0  0  0  0  0  0  0  0
    4.4653    0.9347    4.3638 H   0  0  0  0  0  0  0  0  0  0  0  0
    6.0072    1.0761    5.8509 H   0  0  0  0  0  0  0  0  0  0  0  0
    7.8744    1.0553    7.4220 H   0  0  0  0  0  0  0  0  0  0  0  0
    7.2734   -3.1442    8.1491 H   0  0  0  0  0  0  0  0  0  0  0  0
    5.3829   -3.1593    6.5753 H   0  0  0  0  0  0  0  0  0  0  0  0
    2.2852   -2.6795    3.5317 H   0  0  0  0  0  0  0  0  0  0  0  0
    1.4236   -0.1308   -2.5240 H   0  0  0  0  0  0  0  0  0  0  0  0
    2.7082   -0.2737   -4.5935 H   0  0  0  0  0  0  0  0  0  0  0  0
    4.1159    0.8242   -6.1591 H   0  0  0  0  0  0  0  0  0  0  0  0
    7.5310   -0.4106   -8.0807 H   0  0  0  0  0  0  0  0  0  0  0  0
    7.1343   -1.4344   -4.1240 H   0  0  0  0  0  0  0  0  0  0  0  0
    6.3726   -0.1845   -2.2856 H   0  0  0  0  0  0  0  0  0  0  0  0
  1  2  2  0  0  0  0
  2  3  1  0  0  0  0
  2 17  1  0  0  0  0
  3  4  1  0  0  0  0
  3 30  1  0  0  0  0
  4  5  1  0  0  0  0
  4 31  1  0  0  0  0
  4 32  1  0  0  0  0
  5  6  2  0  0  0  0
  5 16  1  0  0  0  0
  6  7  1  0  0  0  0
  6 33  1  0  0  0  0
  7  8  1  0  0  0  0
  7 15  1  0  0  0  0
  8  9  2  0  0  0  0
  8 14  1  0  0  0  0
  9 10  1  0  0  0  0
  9 34  1  0  0  0  0
 10 11  2  0  0  0  0
 10 35  1  0  0  0  0
 11 12  1  0  0  0  0
 11 13  1  0  0  0  0
 13 14  2  0  0  0  0
 13 36  1  0  0  0  0
 14 37  1  0  0  0  0
 15 16  2  0  0  0  0
 16 38  1  0  0  0  0
 17 18  2  0  0  0  0
 17 28  1  0  0  0  0
 18 19  1  0  0  0  0
 18 39  1  0  0  0  0
 19 20  2  0  0  0  0
 19 40  1  0  0  0  0
 20 21  1  0  0  0  0
 20 27  1  0  0  0  0
 21 22  2  0  0  0  0
 21 26  1  0  0  0  0
 22 23  1  0  0  0  0
 22 41  1  0  0  0  0
 23 24  2  0  0  0  0
 24 25  1  0  0  0  0
 24 42  1  0  0  0  0
 25 26  2  0  0  0  0
 26 43  1  0  0  0  0
 27 28  2  0  0  0  0
 27 44  1  0  0  0  0
 28 29  1  0  0  0  0
M  END
$$$$
