
 OpenBabel01122422423D

 41 44  0  0  0  0  0  0  0  0999 V2000
    2.5417   -1.2561   -0.9350 O   0  0  0  0  0  0  0  0  0  0  0  0
    3.5078   -0.9687   -0.2320 C   0  0  0  0  0  0  0  0  0  0  0  0
    3.5452   -1.1427    1.1394 N   0  0  0  0  0  0  0  0  0  0  0  0
    2.5658   -1.7280    1.9283 C   0  0  0  0  0  0  0  0  0  0  0  0
    1.3826   -2.2212    1.5068 C   0  0  0  0  0  0  0  0  0  0  0  0
    0.4327   -2.8122    2.3590 N   0  0  0  0  0  0  0  0  0  0  0  0
   -0.8382   -3.3173    1.8476 C   0  0  0  0  0  0  0  0  0  0  0  0
   -1.9648   -3.4551    2.6790 C   0  0  0  0  0  0  0  0  0  0  0  0
   -3.1843   -3.9564    2.2033 C   0  0  0  0  0  0  0  0  0  0  0  0
   -3.3157   -4.3209    0.8706 C   0  0  0  0  0  0  0  0  0  0  0  0
   -2.2281   -4.1794    0.0167 C   0  0  0  0  0  0  0  0  0  0  0  0
   -1.0053   -3.6825    0.4980 C   0  0  0  0  0  0  0  0  0  0  0  0
    0.7278   -2.9404    3.7346 C   0  0  0  0  0  0  0  0  0  0  0  0
    0.0610   -3.5035    4.6006 O   0  0  0  0  0  0  0  0  0  0  0  0
    2.0168   -2.3607    4.1941 C   0  0  0  0  0  0  0  0  0  0  0  0
    2.8733   -1.8043    3.3364 C   0  0  0  0  0  0  0  0  0  0  0  0
    4.7272   -0.4587   -0.9244 C   0  0  0  0  0  0  0  0  0  0  0  0
    5.9174   -0.0563   -0.3442 C   0  0  0  0  0  0  0  0  0  0  0  0
    7.0280    0.3079   -1.0501 N   0  0  0  0  0  0  0  0  0  0  0  0
    7.0106    0.1920   -2.4120 C   0  0  0  0  0  0  0  0  0  0  0  0
    8.1109    0.4510   -3.2350 C   0  0  0  0  0  0  0  0  0  0  0  0
    9.2440    0.9357   -2.7028 F   0  0  0  0  0  0  0  0  0  0  0  0
    8.0976    0.2007   -4.6135 C   0  0  0  0  0  0  0  0  0  0  0  0
    6.9563   -0.3105   -5.2135 C   0  0  0  0  0  0  0  0  0  0  0  0
    5.8205   -0.5006   -4.4421 C   0  0  0  0  0  0  0  0  0  0  0  0
    5.8439   -0.2440   -3.0683 C   0  0  0  0  0  0  0  0  0  0  0  0
    4.6988   -0.4820   -2.3186 C   0  0  0  0  0  0  0  0  0  0  0  0
    4.3778   -0.8513    1.6310 H   0  0  0  0  0  0  0  0  0  0  0  0
    1.0956   -2.1525    0.4677 H   0  0  0  0  0  0  0  0  0  0  0  0
   -1.9428   -3.1505    3.7209 H   0  0  0  0  0  0  0  0  0  0  0  0
   -4.0257   -4.0557    2.8846 H   0  0  0  0  0  0  0  0  0  0  0  0
   -4.2595   -4.7154    0.5033 H   0  0  0  0  0  0  0  0  0  0  0  0
   -2.3236   -4.4664   -1.0282 H   0  0  0  0  0  0  0  0  0  0  0  0
   -0.1845   -3.6365   -0.2117 H   0  0  0  0  0  0  0  0  0  0  0  0
    2.2200   -2.4332    5.2548 H   0  0  0  0  0  0  0  0  0  0  0  0
    3.8090   -1.4024    3.7095 H   0  0  0  0  0  0  0  0  0  0  0  0
    6.0696   -0.0136    0.7290 H   0  0  0  0  0  0  0  0  0  0  0  0
    8.9891    0.3923   -5.2018 H   0  0  0  0  0  0  0  0  0  0  0  0
    6.9457   -0.5663   -6.2706 H   0  0  0  0  0  0  0  0  0  0  0  0
    4.9240   -0.9079   -4.9082 H   0  0  0  0  0  0  0  0  0  0  0  0
    3.7708   -0.7487   -2.8271 H   0  0  0  0  0  0  0  0  0  0  0  0
  1  2  2  0  0  0  0
  2  3  1  0  0  0  0
  2 17  1  0  0  0  0
  3  4  1  0  0  0  0
  3 28  1  0  0  0  0
  4  5  2  0  0  0  0
  4 16  1  0  0  0  0
  5  6  1  0  0  0  0
  5 29  1  0  0  0  0
  6  7  1  0  0  0  0
  6 13  1  0  0  0  0
  7  8  2  0  0  0  0
  7 12  1  0  0  0  0
  8  9  1  0  0  0  0
  8 30  1  0  0  0  0
  9 10  2  0  0  0  0
  9 31  1  0  0  0  0
 10 11  1  0  0  0  0
 10 32  1  0  0  0  0
 11 12  2  0  0  0  0
 11 33  1  0  0  0  0
 12 34  1  0  0  0  0
 13 14  2  0  0  0  0
 13 15  1  0  0  0  0
 15 16  2  0  0  0  0
 15 35  1  0  0  0  0
 16 36  1  0  0  0  0
 17 18  2  0  0  0  0
 17 27  1  0  0  0  0
 18 19  1  0  0  0  0
 18 37  1  0  0  0  0
 19 20  2  0  0  0  0
 20 21  1  0  0  0  0
 20 26  1  0  0  0  0
 21 22  1  0  0  0  0
 21 23  2  0  0  0  0
 23 24  1  0  0  0  0
 23 38  1  0  0  0  0
 24 25  2  0  0  0  0
 24 39  1  0  0  0  0
 25 26  1  0  0  0  0
 25 40  1  0  0  0  0
 26 27  2  0  0  0  0
 27 41  1  0  0  0  0
M  END
$$$$
