
 OpenBabel01122422423D

 44 47  0  0  0  0  0  0  0  0999 V2000
    5.3090    0.2675   -1.0456 N   0  0  0  0  0  0  0  0  0  0  0  0
    3.9892    0.3466   -0.4230 C   0  0  0  0  0  0  0  0  0  0  0  0
    4.1592    0.3263    1.0565 C   0  0  0  0  0  0  0  0  0  0  0  0
    4.3427    1.3952    1.9116 C   0  0  0  0  0  0  0  0  0  0  0  0
    4.4430    0.8551    3.1643 N   0  0  0  0  0  0  0  0  0  0  0  0
    4.6150    1.4952    4.3817 C   0  0  0  0  0  0  0  0  0  0  0  0
    4.6619    0.7681    5.5166 C   0  0  0  0  0  0  0  0  0  0  0  0
    4.7542    1.5488    6.7889 C   0  0  0  0  0  0  0  0  0  0  0  0
    4.3356    2.7045    6.8127 O   0  0  0  0  0  0  0  0  0  0  0  0
    5.3940    0.9083    7.8310 N   0  0  0  0  0  0  0  0  0  0  0  0
    5.6484    1.4775    9.1032 C   0  0  0  0  0  0  0  0  0  0  0  0
    5.0442    2.6453    9.5700 C   0  0  0  0  0  0  0  0  0  0  0  0
    5.3626    3.1430   10.8321 C   0  0  0  0  0  0  0  0  0  0  0  0
    6.2734    2.4418   11.6008 C   0  0  0  0  0  0  0  0  0  0  0  0
    6.5308    2.9442   12.8674 O   0  0  0  0  0  0  0  0  0  0  0  0
    6.7837    2.0373   13.8712 C   0  0  0  0  0  0  0  0  0  0  0  0
    6.1536    0.7959   13.9957 C   0  0  0  0  0  0  0  0  0  0  0  0
    5.2067    0.4023   13.1294 F   0  0  0  0  0  0  0  0  0  0  0  0
    6.4751   -0.0412   15.0567 C   0  0  0  0  0  0  0  0  0  0  0  0
    5.8961   -1.2459   15.1586 F   0  0  0  0  0  0  0  0  0  0  0  0
    7.3816    0.3611   16.0325 C   0  0  0  0  0  0  0  0  0  0  0  0
    7.9760    1.6198   15.9436 C   0  0  0  0  0  0  0  0  0  0  0  0
    7.6786    2.4561   14.8635 C   0  0  0  0  0  0  0  0  0  0  0  0
    6.9138    1.3279   11.1787 N   0  0  0  0  0  0  0  0  0  0  0  0
    6.5607    0.8593    9.9578 C   0  0  0  0  0  0  0  0  0  0  0  0
    4.5155   -0.6841    5.4185 C   0  0  0  0  0  0  0  0  0  0  0  0
    4.3553   -1.2946    4.2240 C   0  0  0  0  0  0  0  0  0  0  0  0
    4.3160   -0.5194    3.0276 C   0  0  0  0  0  0  0  0  0  0  0  0
    4.1557   -0.8626    1.7658 N   0  0  0  0  0  0  0  0  0  0  0  0
    5.1893    0.1561   -2.0489 H   0  0  0  0  0  0  0  0  0  0  0  0
    5.7492   -0.5906   -0.7127 H   0  0  0  0  0  0  0  0  0  0  0  0
    3.3712   -0.4990   -0.7438 H   0  0  0  0  0  0  0  0  0  0  0  0
    3.4867    1.2696   -0.7384 H   0  0  0  0  0  0  0  0  0  0  0  0
    4.4076    2.4580    1.7318 H   0  0  0  0  0  0  0  0  0  0  0  0
    4.6841    2.5769    4.3582 H   0  0  0  0  0  0  0  0  0  0  0  0
    5.8307    0.0156    7.6414 H   0  0  0  0  0  0  0  0  0  0  0  0
    4.3010    3.1834    8.9910 H   0  0  0  0  0  0  0  0  0  0  0  0
    4.8896    4.0427   11.2087 H   0  0  0  0  0  0  0  0  0  0  0  0
    7.6057   -0.3039   16.8604 H   0  0  0  0  0  0  0  0  0  0  0  0
    8.6695    1.9502   16.7133 H   0  0  0  0  0  0  0  0  0  0  0  0
    8.1450    3.4365   14.7950 H   0  0  0  0  0  0  0  0  0  0  0  0
    7.0676   -0.0598    9.6789 H   0  0  0  0  0  0  0  0  0  0  0  0
    4.4993   -1.2768    6.3278 H   0  0  0  0  0  0  0  0  0  0  0  0
    4.2316   -2.3690    4.1422 H   0  0  0  0  0  0  0  0  0  0  0  0
  1  2  1  0  0  0  0
  1 30  1  0  0  0  0
  1 31  1  0  0  0  0
  2  3  1  0  0  0  0
  2 32  1  0  0  0  0
  2 33  1  0  0  0  0
  3  4  2  0  0  0  0
  3 29  1  0  0  0  0
  4  5  1  0  0  0  0
  4 34  1  0  0  0  0
  5  6  1  0  0  0  0
  5 28  1  0  0  0  0
  6  7  2  0  0  0  0
  6 35  1  0  0  0  0
  7  8  1  0  0  0  0
  7 26  1  0  0  0  0
  8  9  2  0  0  0  0
  8 10  1  0  0  0  0
 10 11  1  0  0  0  0
 10 36  1  0  0  0  0
 11 12  2  0  0  0  0
 11 25  1  0  0  0  0
 12 13  1  0  0  0  0
 12 37  1  0  0  0  0
 13 14  2  0  0  0  0
 13 38  1  0  0  0  0
 14 15  1  0  0  0  0
 14 24  1  0  0  0  0
 15 16  1  0  0  0  0
 16 17  2  0  0  0  0
 16 23  1  0  0  0  0
 17 18  1  0  0  0  0
 17 19  1  0  0  0  0
 19 20  1  0  0  0  0
 19 21  2  0  0  0  0
 21 22  1  0  0  0  0
 21 39  1  0  0  0  0
 22 23  2  0  0  0  0
 22 40  1  0  0  0  0
 23 41  1  0  0  0  0
 24 25  2  0  0  0  0
 25 42  1  0  0  0  0
 26 27  2  0  0  0  0
 26 43  1  0  0  0  0
 27 28  1  0  0  0  0
 27 44  1  0  0  0  0
 28 29  2  0  0  0  0
M  END
$$$$
