
 OpenBabel01122422423D

 44 47  0  0  0  0  0  0  0  0999 V2000
    4.3838   -3.4978   -0.3969 O   0  0  0  0  0  0  0  0  0  0  0  0
    3.4328   -3.1332    0.2834 C   0  0  0  0  0  0  0  0  0  0  0  0
    2.1040   -3.8629    0.3915 C   0  0  0  0  0  0  0  0  0  0  0  0
    1.6661   -4.3845   -0.9038 N   0  0  0  0  0  0  0  0  0  0  0  0
    2.0416   -5.6573   -1.2999 C   0  0  0  0  0  0  0  0  0  0  0  0
    1.6429   -6.1627   -2.4736 C   0  0  0  0  0  0  0  0  0  0  0  0
    1.9969   -7.4063   -2.8500 F   0  0  0  0  0  0  0  0  0  0  0  0
    0.8163   -5.3871   -3.3560 C   0  0  0  0  0  0  0  0  0  0  0  0
    0.4583   -4.1395   -3.0230 C   0  0  0  0  0  0  0  0  0  0  0  0
    0.9106   -3.5491   -1.7290 C   0  0  0  0  0  0  0  0  0  0  0  0
    0.6042   -2.3943   -1.4491 O   0  0  0  0  0  0  0  0  0  0  0  0
    3.4321   -2.0322    1.0858 O   0  0  0  0  0  0  0  0  0  0  0  0
    4.4287   -1.0781    0.7416 C   0  0  0  0  0  0  0  0  0  0  0  0
    5.5359   -1.0427    1.7685 C   0  0  0  0  0  0  0  0  0  0  0  0
    6.1733    0.1129    1.9611 N   0  0  0  0  0  0  0  0  0  0  0  0
    7.3005   -0.0770    1.1993 C   0  0  0  0  0  0  0  0  0  0  0  0
    8.1299    0.8635    0.5887 C   0  0  0  0  0  0  0  0  0  0  0  0
    9.0948    0.3824   -0.2949 C   0  0  0  0  0  0  0  0  0  0  0  0
    9.8456    1.2609   -0.9719 F   0  0  0  0  0  0  0  0  0  0  0  0
    9.2792   -0.9819   -0.5308 C   0  0  0  0  0  0  0  0  0  0  0  0
    8.5017   -1.9397    0.1261 C   0  0  0  0  0  0  0  0  0  0  0  0
    7.5112   -1.4403    0.9759 C   0  0  0  0  0  0  0  0  0  0  0  0
    6.5515   -2.0088    1.8041 N   0  0  0  0  0  0  0  0  0  0  0  0
    6.7760   -3.0082    2.8011 C   0  0  0  0  0  0  0  0  0  0  0  0
    8.0878   -3.4529    3.0527 C   0  0  0  0  0  0  0  0  0  0  0  0
    8.3681   -4.2721    4.1476 C   0  0  0  0  0  0  0  0  0  0  0  0
    7.3365   -4.6828    4.9899 C   0  0  0  0  0  0  0  0  0  0  0  0
    6.0260   -4.2737    4.7264 C   0  0  0  0  0  0  0  0  0  0  0  0
    5.7425   -3.4337    3.6401 C   0  0  0  0  0  0  0  0  0  0  0  0
    1.3430   -3.1691    0.7665 H   0  0  0  0  0  0  0  0  0  0  0  0
    2.2100   -4.6765    1.1155 H   0  0  0  0  0  0  0  0  0  0  0  0
    2.6648   -6.2391   -0.6252 H   0  0  0  0  0  0  0  0  0  0  0  0
    0.4994   -5.8407   -4.2877 H   0  0  0  0  0  0  0  0  0  0  0  0
   -0.1592   -3.5151   -3.6560 H   0  0  0  0  0  0  0  0  0  0  0  0
    3.9471   -0.0915    0.7205 H   0  0  0  0  0  0  0  0  0  0  0  0
    4.8401   -1.2172   -0.2687 H   0  0  0  0  0  0  0  0  0  0  0  0
    7.9756    1.9266    0.7310 H   0  0  0  0  0  0  0  0  0  0  0  0
   10.0384   -1.2960   -1.2433 H   0  0  0  0  0  0  0  0  0  0  0  0
    8.6285   -3.0027   -0.0522 H   0  0  0  0  0  0  0  0  0  0  0  0
    8.9347   -3.1156    2.4632 H   0  0  0  0  0  0  0  0  0  0  0  0
    9.3960   -4.5549    4.3626 H   0  0  0  0  0  0  0  0  0  0  0  0
    7.5630   -5.2928    5.8585 H   0  0  0  0  0  0  0  0  0  0  0  0
    5.2291   -4.5903    5.3936 H   0  0  0  0  0  0  0  0  0  0  0  0
    4.7180   -3.1028    3.4944 H   0  0  0  0  0  0  0  0  0  0  0  0
  1  2  2  0  0  0  0
  2  3  1  0  0  0  0
  2 12  1  0  0  0  0
  3  4  1  0  0  0  0
  3 30  1  0  0  0  0
  3 31  1  0  0  0  0
  4  5  1  0  0  0  0
  4 10  1  0  0  0  0
  5  6  2  0  0  0  0
  5 32  1  0  0  0  0
  6  7  1  0  0  0  0
  6  8  1  0  0  0  0
  8  9  2  0  0  0  0
  8 33  1  0  0  0  0
  9 10  1  0  0  0  0
  9 34  1  0  0  0  0
 10 11  2  0  0  0  0
 12 13  1  0  0  0  0
 13 14  1  0  0  0  0
 13 35  1  0  0  0  0
 13 36  1  0  0  0  0
 14 15  2  0  0  0  0
 14 23  1  0  0  0  0
 15 16  1  0  0  0  0
 16 17  2  0  0  0  0
 16 22  1  0  0  0  0
 17 18  1  0  0  0  0
 17 37  1  0  0  0  0
 18 19  1  0  0  0  0
 18 20  2  0  0  0  0
 20 21  1  0  0  0  0
 20 38  1  0  0  0  0
 21 22  2  0  0  0  0
 21 39  1  0  0  0  0
 22 23  1  0  0  0  0
 23 24  1  0  0  0  0
 24 25  2  0  0  0  0
 24 29  1  0  0  0  0
 25 26  1  0  0  0  0
 25 40  1  0  0  0  0
 26 27  2  0  0  0  0
 26 41  1  0  0  0  0
 27 28  1  0  0  0  0
 27 42  1  0  0  0  0
 28 29  2  0  0  0  0
 28 43  1  0  0  0  0
 29 44  1  0  0  0  0
M  END
$$$$
