
 OpenBabel01122422423D

 48 51  0  0  0  0  0  0  0  0999 V2000
    1.4919    1.1253   -0.0462 C   0  0  0  0  0  0  0  0  0  0  0  0
    2.8110    0.5962    0.0419 O   0  0  0  0  0  0  0  0  0  0  0  0
    3.3625    0.1303   -1.1191 C   0  0  0  0  0  0  0  0  0  0  0  0
    4.6581   -0.3830   -0.9952 C   0  0  0  0  0  0  0  0  0  0  0  0
    5.3502   -0.8694   -2.1108 C   0  0  0  0  0  0  0  0  0  0  0  0
    4.7478   -0.8535   -3.3688 C   0  0  0  0  0  0  0  0  0  0  0  0
    5.4470   -1.2368   -4.5151 N   0  0  0  0  0  0  0  0  0  0  0  0
    4.8510   -1.2504   -5.7645 C   0  0  0  0  0  0  0  0  0  0  0  0
    5.6836   -1.8664   -6.8675 C   0  0  0  0  0  0  0  0  0  0  0  0
    6.5408   -2.6795   -6.5246 O   0  0  0  0  0  0  0  0  0  0  0  0
    5.4746   -1.3465   -8.1262 N   0  0  0  0  0  0  0  0  0  0  0  0
    6.1708   -1.7688   -9.2706 C   0  0  0  0  0  0  0  0  0  0  0  0
    6.1102   -0.9680  -10.4103 C   0  0  0  0  0  0  0  0  0  0  0  0
    6.8385   -1.3380  -11.5517 C   0  0  0  0  0  0  0  0  0  0  0  0
    6.8597   -0.4676  -12.7857 C   0  0  0  0  0  0  0  0  0  0  0  0
    7.9664    0.5623  -12.7990 C   0  0  0  0  0  0  0  0  0  0  0  0
    9.2322    0.2469  -13.3160 C   0  0  0  0  0  0  0  0  0  0  0  0
   10.2453    1.2038  -13.3497 C   0  0  0  0  0  0  0  0  0  0  0  0
   10.0118    2.4891  -12.8605 C   0  0  0  0  0  0  0  0  0  0  0  0
    8.7639    2.8115  -12.3319 C   0  0  0  0  0  0  0  0  0  0  0  0
    7.7485    1.8522  -12.2965 C   0  0  0  0  0  0  0  0  0  0  0  0
    7.5782   -2.5195  -11.5096 C   0  0  0  0  0  0  0  0  0  0  0  0
    7.5559   -3.2684  -10.3485 C   0  0  0  0  0  0  0  0  0  0  0  0
    6.8691   -2.9155   -9.2445 N   0  0  0  0  0  0  0  0  0  0  0  0
    3.5981   -0.8252   -5.9811 C   0  0  0  0  0  0  0  0  0  0  0  0
    2.8240   -0.2986   -4.8308 C   0  0  0  0  0  0  0  0  0  0  0  0
    1.6942    0.1446   -5.0067 O   0  0  0  0  0  0  0  0  0  0  0  0
    3.4512   -0.3321   -3.4865 C   0  0  0  0  0  0  0  0  0  0  0  0
    2.7531    0.1470   -2.3725 C   0  0  0  0  0  0  0  0  0  0  0  0
    1.2207    1.5197    0.9374 H   0  0  0  0  0  0  0  0  0  0  0  0
    0.7760    0.3376   -0.3029 H   0  0  0  0  0  0  0  0  0  0  0  0
    1.4392    1.9553   -0.7587 H   0  0  0  0  0  0  0  0  0  0  0  0
    5.1388   -0.3952   -0.0186 H   0  0  0  0  0  0  0  0  0  0  0  0
    6.3616   -1.2475   -1.9856 H   0  0  0  0  0  0  0  0  0  0  0  0
    6.2806   -1.8193   -4.4356 H   0  0  0  0  0  0  0  0  0  0  0  0
    4.8909   -0.5315   -8.2265 H   0  0  0  0  0  0  0  0  0  0  0  0
    5.5348   -0.0483  -10.4124 H   0  0  0  0  0  0  0  0  0  0  0  0
    5.8897    0.0329  -12.8991 H   0  0  0  0  0  0  0  0  0  0  0  0
    6.9470   -1.1025  -13.6786 H   0  0  0  0  0  0  0  0  0  0  0  0
    9.4358   -0.7480  -13.7062 H   0  0  0  0  0  0  0  0  0  0  0  0
   11.2223    0.9524  -13.7577 H   0  0  0  0  0  0  0  0  0  0  0  0
   10.8004    3.2367  -12.8916 H   0  0  0  0  0  0  0  0  0  0  0  0
    8.5810    3.8125  -11.9485 H   0  0  0  0  0  0  0  0  0  0  0  0
    6.7802    2.1267  -11.8831 H   0  0  0  0  0  0  0  0  0  0  0  0
    8.1660   -2.8545  -12.3572 H   0  0  0  0  0  0  0  0  0  0  0  0
    8.1112   -4.1979  -10.2650 H   0  0  0  0  0  0  0  0  0  0  0  0
    3.0803   -0.8653   -6.9283 H   0  0  0  0  0  0  0  0  0  0  0  0
    1.7497    0.5329   -2.5184 H   0  0  0  0  0  0  0  0  0  0  0  0
  1  2  1  0  0  0  0
  1 30  1  0  0  0  0
  1 31  1  0  0  0  0
  1 32  1  0  0  0  0
  2  3  1  0  0  0  0
  3  4  2  0  0  0  0
  3 29  1  0  0  0  0
  4  5  1  0  0  0  0
  4 33  1  0  0  0  0
  5  6  2  0  0  0  0
  5 34  1  0  0  0  0
  6  7  1  0  0  0  0
  6 28  1  0  0  0  0
  7  8  1  0  0  0  0
  7 35  1  0  0  0  0
  8  9  1  0  0  0  0
  8 25  2  0  0  0  0
  9 10  2  0  0  0  0
  9 11  1  0  0  0  0
 11 12  1  0  0  0  0
 11 36  1  0  0  0  0
 12 13  2  0  0  0  0
 12 24  1  0  0  0  0
 13 14  1  0  0  0  0
 13 37  1  0  0  0  0
 14 15  1  0  0  0  0
 14 22  2  0  0  0  0
 15 16  1  0  0  0  0
 15 38  1  0  0  0  0
 15 39  1  0  0  0  0
 16 17  2  0  0  0  0
 16 21  1  0  0  0  0
 17 18  1  0  0  0  0
 17 40  1  0  0  0  0
 18 19  2  0  0  0  0
 18 41  1  0  0  0  0
 19 20  1  0  0  0  0
 19 42  1  0  0  0  0
 20 21  2  0  0  0  0
 20 43  1  0  0  0  0
 21 44  1  0  0  0  0
 22 23  1  0  0  0  0
 22 45  1  0  0  0  0
 23 24  2  0  0  0  0
 23 46  1  0  0  0  0
 25 26  1  0  0  0  0
 25 47  1  0  0  0  0
 26 27  2  0  0  0  0
 26 28  1  0  0  0  0
 28 29  2  0  0  0  0
 29 48  1  0  0  0  0
M  END
$$$$
