
 OpenBabel01122422353D

 45 48  0  0  0  0  0  0  0  0999 V2000
    2.8117    1.7929   -2.1410 O   0  0  0  0  0  0  0  0  0  0  0  0
    3.1485    1.0650   -1.2095 C   0  0  0  0  0  0  0  0  0  0  0  0
    2.9869   -0.2996   -1.2278 N   0  0  0  0  0  0  0  0  0  0  0  0
    2.3168   -0.9908   -2.3133 C   0  0  0  0  0  0  0  0  0  0  0  0
    3.2427   -1.3695   -3.4482 C   0  0  0  0  0  0  0  0  0  0  0  0
    3.4913   -0.4626   -4.4740 C   0  0  0  0  0  0  0  0  0  0  0  0
    4.4408   -0.7812   -5.4431 C   0  0  0  0  0  0  0  0  0  0  0  0
    4.8331    0.0705   -6.4538 O   0  0  0  0  0  0  0  0  0  0  0  0
    4.8568    1.4297   -6.2222 C   0  0  0  0  0  0  0  0  0  0  0  0
    5.1772    2.0092   -4.9861 C   0  0  0  0  0  0  0  0  0  0  0  0
    5.0951    3.3922   -4.8160 C   0  0  0  0  0  0  0  0  0  0  0  0
    4.7651    4.1953   -5.9006 C   0  0  0  0  0  0  0  0  0  0  0  0
    4.6794    5.5220   -5.7329 F   0  0  0  0  0  0  0  0  0  0  0  0
    4.5310    3.6285   -7.1485 C   0  0  0  0  0  0  0  0  0  0  0  0
    4.2496    4.4107   -8.1995 F   0  0  0  0  0  0  0  0  0  0  0  0
    4.5749    2.2475   -7.3184 C   0  0  0  0  0  0  0  0  0  0  0  0
    5.0197   -2.0435   -5.4388 C   0  0  0  0  0  0  0  0  0  0  0  0
    4.6844   -2.9052   -4.4103 C   0  0  0  0  0  0  0  0  0  0  0  0
    3.8361   -2.5890   -3.4046 N   0  0  0  0  0  0  0  0  0  0  0  0
    3.7372    1.6063    0.0165 C   0  0  0  0  0  0  0  0  0  0  0  0
    4.1931    0.8669    1.0491 N   0  0  0  0  0  0  0  0  0  0  0  0
    4.6064    1.8260    1.9341 N   0  0  0  0  0  0  0  0  0  0  0  0
    5.1951    1.5131    3.1920 C   0  0  0  0  0  0  0  0  0  0  0  0
    5.4315    0.1785    3.5514 C   0  0  0  0  0  0  0  0  0  0  0  0
    6.0286   -0.1176    4.7788 C   0  0  0  0  0  0  0  0  0  0  0  0
    6.3754    0.9141    5.6439 C   0  0  0  0  0  0  0  0  0  0  0  0
    6.9485    0.6255    6.8199 F   0  0  0  0  0  0  0  0  0  0  0  0
    6.1372    2.2419    5.3076 C   0  0  0  0  0  0  0  0  0  0  0  0
    5.5461    2.5461    4.0783 C   0  0  0  0  0  0  0  0  0  0  0  0
    4.4333    3.1144    1.5362 N   0  0  0  0  0  0  0  0  0  0  0  0
    3.8987    2.9678    0.3251 C   0  0  0  0  0  0  0  0  0  0  0  0
    3.3475   -0.8293   -0.4412 H   0  0  0  0  0  0  0  0  0  0  0  0
    1.5013   -0.3642   -2.6927 H   0  0  0  0  0  0  0  0  0  0  0  0
    1.8655   -1.8955   -1.8922 H   0  0  0  0  0  0  0  0  0  0  0  0
    2.9734    0.4920   -4.4830 H   0  0  0  0  0  0  0  0  0  0  0  0
    5.4573    1.3945   -4.1340 H   0  0  0  0  0  0  0  0  0  0  0  0
    5.2748    3.8407   -3.8444 H   0  0  0  0  0  0  0  0  0  0  0  0
    4.3768    1.8216   -8.2967 H   0  0  0  0  0  0  0  0  0  0  0  0
    5.7204   -2.3436   -6.2096 H   0  0  0  0  0  0  0  0  0  0  0  0
    5.1090   -3.9046   -4.3602 H   0  0  0  0  0  0  0  0  0  0  0  0
    5.1725   -0.6372    2.8789 H   0  0  0  0  0  0  0  0  0  0  0  0
    6.2312   -1.1468    5.0641 H   0  0  0  0  0  0  0  0  0  0  0  0
    6.4126    3.0314    6.0010 H   0  0  0  0  0  0  0  0  0  0  0  0
    5.3650    3.5904    3.8278 H   0  0  0  0  0  0  0  0  0  0  0  0
    3.6413    3.8362   -0.2666 H   0  0  0  0  0  0  0  0  0  0  0  0
  1  2  2  0  0  0  0
  2  3  1  0  0  0  0
  2 20  1  0  0  0  0
  3  4  1  0  0  0  0
  3 32  1  0  0  0  0
  4  5  1  0  0  0  0
  4 33  1  0  0  0  0
  4 34  1  0  0  0  0
  5  6  2  0  0  0  0
  5 19  1  0  0  0  0
  6  7  1  0  0  0  0
  6 35  1  0  0  0  0
  7  8  1  0  0  0  0
  7 17  2  0  0  0  0
  8  9  1  0  0  0  0
  9 10  2  0  0  0  0
  9 16  1  0  0  0  0
 10 11  1  0  0  0  0
 10 36  1  0  0  0  0
 11 12  2  0  0  0  0
 11 37  1  0  0  0  0
 12 13  1  0  0  0  0
 12 14  1  0  0  0  0
 14 15  1  0  0  0  0
 14 16  2  0  0  0  0
 16 38  1  0  0  0  0
 17 18  1  0  0  0  0
 17 39  1  0  0  0  0
 18 19  2  0  0  0  0
 18 40  1  0  0  0  0
 20 21  2  0  0  0  0
 20 31  1  0  0  0  0
 21 22  1  0  0  0  0
 22 23  1  0  0  0  0
 22 30  1  0  0  0  0
 23 24  2  0  0  0  0
 23 29  1  0  0  0  0
 24 25  1  0  0  0  0
 24 41  1  0  0  0  0
 25 26  2  0  0  0  0
 25 42  1  0  0  0  0
 26 27  1  0  0  0  0
 26 28  1  0  0  0  0
 28 29  2  0  0  0  0
 28 43  1  0  0  0  0
 29 44  1  0  0  0  0
 30 31  2  0  0  0  0
 31 45  1  0  0  0  0
M  END
$$$$
