
 OpenBabel01122422423D

 46 49  0  0  0  0  0  0  0  0999 V2000
    0.9571   -0.0918   -0.1151 O   0  0  0  0  0  0  0  0  0  0  0  0
    2.1809   -0.0142   -0.0502 C   0  0  0  0  0  0  0  0  0  0  0  0
    2.8152    1.0177    0.5626 N   0  0  0  0  0  0  0  0  0  0  0  0
    2.1447    2.1688    1.1076 C   0  0  0  0  0  0  0  0  0  0  0  0
    1.9186    3.2502    0.0833 C   0  0  0  0  0  0  0  0  0  0  0  0
    0.7345    3.3155   -0.6380 C   0  0  0  0  0  0  0  0  0  0  0  0
    0.4587    4.3010   -1.5291 N   0  0  0  0  0  0  0  0  0  0  0  0
    1.4267    5.2355   -1.7158 C   0  0  0  0  0  0  0  0  0  0  0  0
    1.1194    6.3581   -2.6266 C   0  0  0  0  0  0  0  0  0  0  0  0
   -0.1995    6.8193   -2.7890 C   0  0  0  0  0  0  0  0  0  0  0  0
   -0.4883    7.9449   -3.5680 C   0  0  0  0  0  0  0  0  0  0  0  0
    0.5381    8.6301   -4.2115 C   0  0  0  0  0  0  0  0  0  0  0  0
    1.8468    8.1725   -4.1022 C   0  0  0  0  0  0  0  0  0  0  0  0
    2.1314    7.0438   -3.3271 C   0  0  0  0  0  0  0  0  0  0  0  0
    2.6249    5.1444   -1.0079 C   0  0  0  0  0  0  0  0  0  0  0  0
    2.9045    4.1668   -0.1073 N   0  0  0  0  0  0  0  0  0  0  0  0
    2.9660   -0.9421   -0.6583 N   0  0  0  0  0  0  0  0  0  0  0  0
    4.3446   -1.0479   -0.6219 C   0  0  0  0  0  0  0  0  0  0  0  0
    5.0348   -0.3442    0.2889 N   0  0  0  0  0  0  0  0  0  0  0  0
    6.3715   -0.5060    0.3070 C   0  0  0  0  0  0  0  0  0  0  0  0
    7.0772   -1.2832   -0.5880 C   0  0  0  0  0  0  0  0  0  0  0  0
    8.5411   -1.4149   -0.5581 C   0  0  0  0  0  0  0  0  0  0  0  0
    9.1895   -2.5794   -0.9878 C   0  0  0  0  0  0  0  0  0  0  0  0
   10.5766   -2.6661   -0.9295 C   0  0  0  0  0  0  0  0  0  0  0  0
   11.1954   -3.7777   -1.3356 F   0  0  0  0  0  0  0  0  0  0  0  0
   11.2995   -1.5957   -0.4420 C   0  0  0  0  0  0  0  0  0  0  0  0
   10.7259   -0.4507   -0.0119 N   0  0  0  0  0  0  0  0  0  0  0  0
    9.3747   -0.3909   -0.0839 C   0  0  0  0  0  0  0  0  0  0  0  0
    6.2586   -1.9280   -1.5029 C   0  0  0  0  0  0  0  0  0  0  0  0
    4.9065   -1.8599   -1.5207 N   0  0  0  0  0  0  0  0  0  0  0  0
    3.8294    1.0283    0.5281 H   0  0  0  0  0  0  0  0  0  0  0  0
    2.7907    2.5600    1.9017 H   0  0  0  0  0  0  0  0  0  0  0  0
    1.1987    1.8659    1.5667 H   0  0  0  0  0  0  0  0  0  0  0  0
   -0.0466    2.5683   -0.5096 H   0  0  0  0  0  0  0  0  0  0  0  0
   -1.0186    6.3080   -2.2839 H   0  0  0  0  0  0  0  0  0  0  0  0
   -1.5148    8.2903   -3.6610 H   0  0  0  0  0  0  0  0  0  0  0  0
    0.3180    9.5160   -4.8011 H   0  0  0  0  0  0  0  0  0  0  0  0
    2.6511    8.6945   -4.6141 H   0  0  0  0  0  0  0  0  0  0  0  0
    3.1647    6.7077   -3.2814 H   0  0  0  0  0  0  0  0  0  0  0  0
    3.4076    5.8876   -1.1156 H   0  0  0  0  0  0  0  0  0  0  0  0
    2.4961   -1.6142   -1.2437 H   0  0  0  0  0  0  0  0  0  0  0  0
    6.8598    0.0361    1.1135 H   0  0  0  0  0  0  0  0  0  0  0  0
    8.6423   -3.4436   -1.3526 H   0  0  0  0  0  0  0  0  0  0  0  0
   12.3808   -1.6390   -0.3783 H   0  0  0  0  0  0  0  0  0  0  0  0
    8.9716    0.5597    0.2642 H   0  0  0  0  0  0  0  0  0  0  0  0
    6.6714   -2.5424   -2.2999 H   0  0  0  0  0  0  0  0  0  0  0  0
  1  2  2  0  0  0  0
  2  3  1  0  0  0  0
  2 17  1  0  0  0  0
  3  4  1  0  0  0  0
  3 31  1  0  0  0  0
  4  5  1  0  0  0  0
  4 32  1  0  0  0  0
  4 33  1  0  0  0  0
  5  6  2  0  0  0  0
  5 16  1  0  0  0  0
  6  7  1  0  0  0  0
  6 34  1  0  0  0  0
  7  8  2  0  0  0  0
  8  9  1  0  0  0  0
  8 15  1  0  0  0  0
  9 10  2  0  0  0  0
  9 14  1  0  0  0  0
 10 11  1  0  0  0  0
 10 35  1  0  0  0  0
 11 12  2  0  0  0  0
 11 36  1  0  0  0  0
 12 13  1  0  0  0  0
 12 37  1  0  0  0  0
 13 14  2  0  0  0  0
 13 38  1  0  0  0  0
 14 39  1  0  0  0  0
 15 16  2  0  0  0  0
 15 40  1  0  0  0  0
 17 18  1  0  0  0  0
 17 41  1  0  0  0  0
 18 19  2  0  0  0  0
 18 30  1  0  0  0  0
 19 20  1  0  0  0  0
 20 21  2  0  0  0  0
 20 42  1  0  0  0  0
 21 22  1  0  0  0  0
 21 29  1  0  0  0  0
 22 23  2  0  0  0  0
 22 28  1  0  0  0  0
 23 24  1  0  0  0  0
 23 43  1  0  0  0  0
 24 25  1  0  0  0  0
 24 26  2  0  0  0  0
 26 27  1  0  0  0  0
 26 44  1  0  0  0  0
 27 28  2  0  0  0  0
 28 45  1  0  0  0  0
 29 30  2  0  0  0  0
 29 46  1  0  0  0  0
M  END
$$$$
