
 OpenBabel01122422423D

 51 54  0  0  0  0  0  0  0  0999 V2000
    1.0385   -0.6171    0.1101 O   0  0  0  0  0  0  0  0  0  0  0  0
    2.2177   -0.3222    0.0698 C   0  0  0  0  0  0  0  0  0  0  0  0
    2.9748   -0.0472    1.1841 N   0  0  0  0  0  0  0  0  0  0  0  0
    2.3065    0.0493    2.4678 C   0  0  0  0  0  0  0  0  0  0  0  0
    3.2811    0.3147    3.6092 C   0  0  0  0  0  0  0  0  0  0  0  0
    2.5616    0.3709    4.9314 C   0  0  0  0  0  0  0  0  0  0  0  0
    2.3931   -0.7899    5.6902 C   0  0  0  0  0  0  0  0  0  0  0  0
    1.7000   -0.7441    6.8981 C   0  0  0  0  0  0  0  0  0  0  0  0
    1.1692    0.4649    7.3526 C   0  0  0  0  0  0  0  0  0  0  0  0
    0.5008    0.4957    8.5456 O   0  0  0  0  0  0  0  0  0  0  0  0
    1.3040    1.6435    6.6104 C   0  0  0  0  0  0  0  0  0  0  0  0
    0.7437    2.9924    7.0131 C   0  0  0  0  0  0  0  0  0  0  0  0
    0.0482    3.0517    8.2501 O   0  0  0  0  0  0  0  0  0  0  0  0
    2.0086    1.5751    5.3927 C   0  0  0  0  0  0  0  0  0  0  0  0
    2.9016   -0.1397   -1.2360 C   0  0  0  0  0  0  0  0  0  0  0  0
    2.1392    0.3960   -2.2506 C   0  0  0  0  0  0  0  0  0  0  0  0
    2.7390    0.7023   -3.4766 C   0  0  0  0  0  0  0  0  0  0  0  0
    4.0948    0.4483   -3.6830 C   0  0  0  0  0  0  0  0  0  0  0  0
    4.6732    0.8733   -4.9205 N   0  0  0  0  0  0  0  0  0  0  0  0
    4.1002    1.8435   -5.7320 C   0  0  0  0  0  0  0  0  0  0  0  0
    4.9892    2.1212   -6.7456 C   0  0  0  0  0  0  0  0  0  0  0  0
    5.4800    0.8146   -6.9724 C   0  0  0  0  0  0  0  0  0  0  0  0
    5.6539    0.0284   -8.1185 C   0  0  0  0  0  0  0  0  0  0  0  0
    6.1992   -1.2423   -7.9687 C   0  0  0  0  0  0  0  0  0  0  0  0
    6.6573   -1.6713   -6.7232 C   0  0  0  0  0  0  0  0  0  0  0  0
    6.3982   -0.9410   -5.5547 C   0  0  0  0  0  0  0  0  0  0  0  0
    5.6432    0.2318   -5.7043 C   0  0  0  0  0  0  0  0  0  0  0  0
    4.8616   -0.1533   -2.6928 C   0  0  0  0  0  0  0  0  0  0  0  0
    4.2523   -0.4470   -1.4322 C   0  0  0  0  0  0  0  0  0  0  0  0
    3.8260    0.4892    1.0487 H   0  0  0  0  0  0  0  0  0  0  0  0
    1.7595   -0.8879    2.6280 H   0  0  0  0  0  0  0  0  0  0  0  0
    1.5609    0.8509    2.3976 H   0  0  0  0  0  0  0  0  0  0  0  0
    3.8167    1.2566    3.4380 H   0  0  0  0  0  0  0  0  0  0  0  0
    4.0533   -0.4635    3.6359 H   0  0  0  0  0  0  0  0  0  0  0  0
    2.7915   -1.7399    5.3400 H   0  0  0  0  0  0  0  0  0  0  0  0
    1.5792   -1.6612    7.4677 H   0  0  0  0  0  0  0  0  0  0  0  0
    0.5654   -0.3832    8.9584 H   0  0  0  0  0  0  0  0  0  0  0  0
    0.0468    3.3308    6.2387 H   0  0  0  0  0  0  0  0  0  0  0  0
    1.5648    3.7148    7.0734 H   0  0  0  0  0  0  0  0  0  0  0  0
    0.0231    2.1409    8.6024 H   0  0  0  0  0  0  0  0  0  0  0  0
    2.1194    2.4779    4.7929 H   0  0  0  0  0  0  0  0  0  0  0  0
    1.0765    0.6054   -2.1144 H   0  0  0  0  0  0  0  0  0  0  0  0
    2.0797    1.1101   -4.2311 H   0  0  0  0  0  0  0  0  0  0  0  0
    3.0344    2.0346   -5.7229 H   0  0  0  0  0  0  0  0  0  0  0  0
    5.6894    2.9441   -6.5931 H   0  0  0  0  0  0  0  0  0  0  0  0
    5.2880    0.3810   -9.0767 H   0  0  0  0  0  0  0  0  0  0  0  0
    6.2610   -1.8980   -8.8321 H   0  0  0  0  0  0  0  0  0  0  0  0
    7.1495   -2.6375   -6.6468 H   0  0  0  0  0  0  0  0  0  0  0  0
    6.6561   -1.3598   -4.5896 H   0  0  0  0  0  0  0  0  0  0  0  0
    5.9094   -0.3675   -2.7880 H   0  0  0  0  0  0  0  0  0  0  0  0
    4.8408   -0.9091   -0.6491 H   0  0  0  0  0  0  0  0  0  0  0  0
  1  2  2  0  0  0  0
  2  3  1  0  0  0  0
  2 15  1  0  0  0  0
  3  4  1  0  0  0  0
  3 30  1  0  0  0  0
  4  5  1  0  0  0  0
  4 31  1  0  0  0  0
  4 32  1  0  0  0  0
  5  6  1  0  0  0  0
  5 33  1  0  0  0  0
  5 34  1  0  0  0  0
  6  7  2  0  0  0  0
  6 14  1  0  0  0  0
  7  8  1  0  0  0  0
  7 35  1  0  0  0  0
  8  9  2  0  0  0  0
  8 36  1  0  0  0  0
  9 10  1  0  0  0  0
  9 11  1  0  0  0  0
 10 37  1  0  0  0  0
 11 12  1  0  0  0  0
 11 14  2  0  0  0  0
 12 13  1  0  0  0  0
 12 38  1  0  0  0  0
 12 39  1  0  0  0  0
 13 40  1  0  0  0  0
 14 41  1  0  0  0  0
 15 16  2  0  0  0  0
 15 29  1  0  0  0  0
 16 17  1  0  0  0  0
 16 42  1  0  0  0  0
 17 18  2  0  0  0  0
 17 43  1  0  0  0  0
 18 19  1  0  0  0  0
 18 28  1  0  0  0  0
 19 20  1  0  0  0  0
 19 27  1  0  0  0  0
 20 21  2  0  0  0  0
 20 44  1  0  0  0  0
 21 22  1  0  0  0  0
 21 45  1  0  0  0  0
 22 23  2  0  0  0  0
 22 27  1  0  0  0  0
 23 24  1  0  0  0  0
 23 46  1  0  0  0  0
 24 25  2  0  0  0  0
 24 47  1  0  0  0  0
 25 26  1  0  0  0  0
 25 48  1  0  0  0  0
 26 27  2  0  0  0  0
 26 49  1  0  0  0  0
 28 29  2  0  0  0  0
 28 50  1  0  0  0  0
 29 51  1  0  0  0  0
M  END
$$$$
