
 OpenBabel01122422423D

 49 52  0  0  1  0  0  0  0  0999 V2000
    0.8719   -0.0804    0.2089 C   0  0  0  0  0  0  0  0  0  0  0  0
    2.3978   -0.0911    0.0851 C   0  0  3  0  0  0  0  0  0  0  0  0
    2.9871   -1.0332    1.1387 C   0  0  0  0  0  0  0  0  0  0  0  0
    3.5131   -0.5787    2.1561 O   0  0  0  0  0  0  0  0  0  0  0  0
    2.8511   -2.3817    0.8810 N   0  0  0  0  0  0  0  0  0  0  0  0
    3.3244   -3.3237    1.7666 C   0  0  0  0  0  0  0  0  0  0  0  0
    3.9025   -4.4437    1.3319 N   0  0  0  0  0  0  0  0  0  0  0  0
    4.3368   -5.0122    2.4913 N   0  0  0  0  0  0  0  0  0  0  0  0
    5.2155   -6.1149    2.5089 C   0  0  0  0  0  0  0  0  0  0  0  0
    5.5545   -6.7519    3.7063 C   0  0  0  0  0  0  0  0  0  0  0  0
    6.4196   -7.8427    3.6735 C   0  0  0  0  0  0  0  0  0  0  0  0
    6.9284   -8.2422    2.4476 C   0  0  0  0  0  0  0  0  0  0  0  0
    6.6362   -7.6327    1.2770 N   0  0  0  0  0  0  0  0  0  0  0  0
    5.7817   -6.5804    1.3303 C   0  0  0  0  0  0  0  0  0  0  0  0
    3.8905   -4.4339    3.6390 N   0  0  0  0  0  0  0  0  0  0  0  0
    3.2995   -3.3303    3.1741 C   0  0  0  0  0  0  0  0  0  0  0  0
    2.9116   -0.3553   -1.3232 C   0  0  0  0  0  0  0  0  0  0  0  0
    4.1223    0.2203   -1.7427 C   0  0  0  0  0  0  0  0  0  0  0  0
    4.6260   -0.0236   -3.0239 C   0  0  0  0  0  0  0  0  0  0  0  0
    3.9384   -0.8597   -3.9050 C   0  0  0  0  0  0  0  0  0  0  0  0
    2.7258   -1.4300   -3.5108 C   0  0  0  0  0  0  0  0  0  0  0  0
    1.9617   -2.3640   -4.3658 C   0  0  0  0  0  0  0  0  0  0  0  0
    1.2839   -3.2400   -3.8177 O   0  0  0  0  0  0  0  0  0  0  0  0
    1.9630   -2.2947   -5.8459 C   0  0  0  0  0  0  0  0  0  0  0  0
    2.0701   -1.0784   -6.5308 C   0  0  0  0  0  0  0  0  0  0  0  0
    2.0630   -1.0683   -7.9279 C   0  0  0  0  0  0  0  0  0  0  0  0
    1.9269   -2.2599   -8.6367 C   0  0  0  0  0  0  0  0  0  0  0  0
    1.7890   -3.4715   -7.9563 C   0  0  0  0  0  0  0  0  0  0  0  0
    1.8017   -3.4852   -6.5584 C   0  0  0  0  0  0  0  0  0  0  0  0
    2.2251   -1.1787   -2.2250 C   0  0  0  0  0  0  0  0  0  0  0  0
    0.5723    0.2065    1.2227 H   0  0  0  0  0  0  0  0  0  0  0  0
    0.4292   -1.0631    0.0155 H   0  0  0  0  0  0  0  0  0  0  0  0
    0.4297    0.6376   -0.4908 H   0  0  0  0  0  0  0  0  0  0  0  0
    2.7324    0.9203    0.3584 H   0  0  0  0  0  0  0  0  0  0  0  0
    2.8088   -2.6984   -0.0790 H   0  0  0  0  0  0  0  0  0  0  0  0
    5.1465   -6.4191    4.6581 H   0  0  0  0  0  0  0  0  0  0  0  0
    6.6879   -8.3699    4.5825 H   0  0  0  0  0  0  0  0  0  0  0  0
    7.6032   -9.0906    2.3722 H   0  0  0  0  0  0  0  0  0  0  0  0
    5.5862   -6.1137    0.3680 H   0  0  0  0  0  0  0  0  0  0  0  0
    2.8647   -2.6158    3.8598 H   0  0  0  0  0  0  0  0  0  0  0  0
    4.6890    0.8643   -1.0702 H   0  0  0  0  0  0  0  0  0  0  0  0
    5.5668    0.4300   -3.3305 H   0  0  0  0  0  0  0  0  0  0  0  0
    4.3729   -1.0702   -4.8777 H   0  0  0  0  0  0  0  0  0  0  0  0
    2.1420   -0.1346   -5.9991 H   0  0  0  0  0  0  0  0  0  0  0  0
    2.1551   -0.1290   -8.4640 H   0  0  0  0  0  0  0  0  0  0  0  0
    1.9178   -2.2512   -9.7219 H   0  0  0  0  0  0  0  0  0  0  0  0
    1.6689   -4.4002   -8.5054 H   0  0  0  0  0  0  0  0  0  0  0  0
    1.6860   -4.4331   -6.0310 H   0  0  0  0  0  0  0  0  0  0  0  0
    1.2860   -1.6510   -1.9411 H   0  0  0  0  0  0  0  0  0  0  0  0
  1  2  1  0  0  0  0
  1 31  1  0  0  0  0
  1 32  1  0  0  0  0
  1 33  1  0  0  0  0
  2  3  1  0  0  0  0
  2 17  1  0  0  0  0
  2 34  1  0  0  0  0
  3  4  2  0  0  0  0
  3  5  1  0  0  0  0
  5  6  1  0  0  0  0
  5 35  1  0  0  0  0
  6  7  2  0  0  0  0
  6 16  1  0  0  0  0
  7  8  1  0  0  0  0
  8  9  1  0  0  0  0
  8 15  1  0  0  0  0
  9 10  2  0  0  0  0
  9 14  1  0  0  0  0
 10 11  1  0  0  0  0
 10 36  1  0  0  0  0
 11 12  2  0  0  0  0
 11 37  1  0  0  0  0
 12 13  1  0  0  0  0
 12 38  1  0  0  0  0
 13 14  2  0  0  0  0
 14 39  1  0  0  0  0
 15 16  2  0  0  0  0
 16 40  1  0  0  0  0
 17 18  2  0  0  0  0
 17 30  1  0  0  0  0
 18 19  1  0  0  0  0
 18 41  1  0  0  0  0
 19 20  2  0  0  0  0
 19 42  1  0  0  0  0
 20 21  1  0  0  0  0
 20 43  1  0  0  0  0
 21 22  1  0  0  0  0
 21 30  2  0  0  0  0
 22 23  2  0  0  0  0
 22 24  1  0  0  0  0
 24 25  2  0  0  0  0
 24 29  1  0  0  0  0
 25 26  1  0  0  0  0
 25 44  1  0  0  0  0
 26 27  2  0  0  0  0
 26 45  1  0  0  0  0
 27 28  1  0  0  0  0
 27 46  1  0  0  0  0
 28 29  2  0  0  0  0
 28 47  1  0  0  0  0
 29 48  1  0  0  0  0
 30 49  1  0  0  0  0
M  END
$$$$
