
 OpenBabel01122422423D

 51 54  0  0  0  0  0  0  0  0999 V2000
    9.6412   -2.6195   -6.0375 C   0  0  0  0  0  0  0  0  0  0  0  0
    9.5608   -2.0330   -4.7355 O   0  0  0  0  0  0  0  0  0  0  0  0
    8.6960   -2.6825   -3.9182 C   0  0  0  0  0  0  0  0  0  0  0  0
    7.9975   -3.6349   -4.2416 O   0  0  0  0  0  0  0  0  0  0  0  0
    8.7085   -2.1333   -2.5376 C   0  0  0  0  0  0  0  0  0  0  0  0
    9.3831   -0.9651   -2.1933 C   0  0  0  0  0  0  0  0  0  0  0  0
    9.3379   -0.5081   -0.8741 C   0  0  0  0  0  0  0  0  0  0  0  0
    8.6517   -1.2263    0.1227 C   0  0  0  0  0  0  0  0  0  0  0  0
    8.6228   -0.7404    1.4370 C   0  0  0  0  0  0  0  0  0  0  0  0
    7.9768   -1.4464    2.4443 C   0  0  0  0  0  0  0  0  0  0  0  0
    7.3726   -2.6666    2.1588 C   0  0  0  0  0  0  0  0  0  0  0  0
    7.3987   -3.2016    0.8566 C   0  0  0  0  0  0  0  0  0  0  0  0
    6.8474   -4.6036    0.6778 C   0  0  0  0  0  0  0  0  0  0  0  0
    5.4240   -4.6205    0.4325 N   0  0  0  0  0  0  0  0  0  0  0  0
    4.5360   -5.2361    1.2905 C   0  0  0  0  0  0  0  0  0  0  0  0
    4.8751   -5.7552    2.3526 O   0  0  0  0  0  0  0  0  0  0  0  0
    3.0772   -5.1252    0.8939 C   0  0  0  0  0  0  0  0  0  0  0  0
    2.7531   -5.7178   -0.4344 C   0  0  0  0  0  0  0  0  0  0  0  0
    3.2613   -5.1856   -1.5524 N   0  0  0  0  0  0  0  0  0  0  0  0
    2.6188   -5.8201   -2.5714 N   0  0  0  0  0  0  0  0  0  0  0  0
    2.8092   -5.4070   -3.9175 C   0  0  0  0  0  0  0  0  0  0  0  0
    3.7153   -4.3720   -4.1972 C   0  0  0  0  0  0  0  0  0  0  0  0
    3.9058   -3.9401   -5.5098 C   0  0  0  0  0  0  0  0  0  0  0  0
    3.1890   -4.5296   -6.5487 C   0  0  0  0  0  0  0  0  0  0  0  0
    2.2825   -5.5539   -6.2777 C   0  0  0  0  0  0  0  0  0  0  0  0
    2.0923   -5.9978   -4.9667 C   0  0  0  0  0  0  0  0  0  0  0  0
    1.7887   -6.8092   -2.0937 C   0  0  0  0  0  0  0  0  0  0  0  0
    1.8504   -6.7630   -0.7207 C   0  0  0  0  0  0  0  0  0  0  0  0
    8.0023   -2.4488   -0.1932 C   0  0  0  0  0  0  0  0  0  0  0  0
    8.0148   -2.8535   -1.5467 C   0  0  0  0  0  0  0  0  0  0  0  0
   10.3875   -2.0735   -6.6206 H   0  0  0  0  0  0  0  0  0  0  0  0
    8.6775   -2.5490   -6.5530 H   0  0  0  0  0  0  0  0  0  0  0  0
    9.9610   -3.6651   -5.9654 H   0  0  0  0  0  0  0  0  0  0  0  0
    9.9409   -0.3950   -2.9326 H   0  0  0  0  0  0  0  0  0  0  0  0
    9.8590    0.4151   -0.6225 H   0  0  0  0  0  0  0  0  0  0  0  0
    9.1104    0.1986    1.6901 H   0  0  0  0  0  0  0  0  0  0  0  0
    7.9550   -1.0557    3.4604 H   0  0  0  0  0  0  0  0  0  0  0  0
    6.8994   -3.2268    2.9656 H   0  0  0  0  0  0  0  0  0  0  0  0
    7.0848   -5.1924    1.5722 H   0  0  0  0  0  0  0  0  0  0  0  0
    7.3386   -5.1272   -0.1479 H   0  0  0  0  0  0  0  0  0  0  0  0
    5.0879   -4.4462   -0.5126 H   0  0  0  0  0  0  0  0  0  0  0  0
    2.8073   -4.0620    0.8939 H   0  0  0  0  0  0  0  0  0  0  0  0
    2.4734   -5.6066    1.6722 H   0  0  0  0  0  0  0  0  0  0  0  0
    4.2835   -3.8906   -3.4036 H   0  0  0  0  0  0  0  0  0  0  0  0
    4.6181   -3.1454   -5.7174 H   0  0  0  0  0  0  0  0  0  0  0  0
    3.3379   -4.1910   -7.5702 H   0  0  0  0  0  0  0  0  0  0  0  0
    1.7222   -6.0095   -7.0905 H   0  0  0  0  0  0  0  0  0  0  0  0
    1.3746   -6.7949   -4.8014 H   0  0  0  0  0  0  0  0  0  0  0  0
    1.1969   -7.4331   -2.7457 H   0  0  0  0  0  0  0  0  0  0  0  0
    1.2804   -7.3661   -0.0272 H   0  0  0  0  0  0  0  0  0  0  0  0
    7.4742   -3.7476   -1.8510 H   0  0  0  0  0  0  0  0  0  0  0  0
  1  2  1  0  0  0  0
  1 31  1  0  0  0  0
  1 32  1  0  0  0  0
  1 33  1  0  0  0  0
  2  3  1  0  0  0  0
  3  4  2  0  0  0  0
  3  5  1  0  0  0  0
  5  6  2  0  0  0  0
  5 30  1  0  0  0  0
  6  7  1  0  0  0  0
  6 34  1  0  0  0  0
  7  8  2  0  0  0  0
  7 35  1  0  0  0  0
  8  9  1  0  0  0  0
  8 29  1  0  0  0  0
  9 10  2  0  0  0  0
  9 36  1  0  0  0  0
 10 11  1  0  0  0  0
 10 37  1  0  0  0  0
 11 12  2  0  0  0  0
 11 38  1  0  0  0  0
 12 13  1  0  0  0  0
 12 29  1  0  0  0  0
 13 14  1  0  0  0  0
 13 39  1  0  0  0  0
 13 40  1  0  0  0  0
 14 15  1  0  0  0  0
 14 41  1  0  0  0  0
 15 16  2  0  0  0  0
 15 17  1  0  0  0  0
 17 18  1  0  0  0  0
 17 42  1  0  0  0  0
 17 43  1  0  0  0  0
 18 19  2  0  0  0  0
 18 28  1  0  0  0  0
 19 20  1  0  0  0  0
 20 21  1  0  0  0  0
 20 27  1  0  0  0  0
 21 22  2  0  0  0  0
 21 26  1  0  0  0  0
 22 23  1  0  0  0  0
 22 44  1  0  0  0  0
 23 24  2  0  0  0  0
 23 45  1  0  0  0  0
 24 25  1  0  0  0  0
 24 46  1  0  0  0  0
 25 26  2  0  0  0  0
 25 47  1  0  0  0  0
 26 48  1  0  0  0  0
 27 28  2  0  0  0  0
 27 49  1  0  0  0  0
 28 50  1  0  0  0  0
 29 30  2  0  0  0  0
 30 51  1  0  0  0  0
M  END
$$$$
