
 OpenBabel01122422423D

 50 53  0  0  0  0  0  0  0  0999 V2000
    3.5115   -1.6976   -2.7382 C   0  0  0  0  0  0  0  0  0  0  0  0
    4.5598   -2.5117   -2.5591 C   0  0  0  0  0  0  0  0  0  0  0  0
    4.9447   -3.1190   -1.2778 C   0  0  0  0  0  0  0  0  0  0  0  0
    4.0105   -3.4433   -0.2826 C   0  0  0  0  0  0  0  0  0  0  0  0
    4.4127   -4.0591    0.9094 C   0  0  0  0  0  0  0  0  0  0  0  0
    5.7613   -4.3647    1.1117 C   0  0  0  0  0  0  0  0  0  0  0  0
    6.2605   -5.0217    2.3456 C   0  0  0  0  0  0  0  0  0  0  0  0
    7.2738   -5.7121    2.2983 O   0  0  0  0  0  0  0  0  0  0  0  0
    5.5674   -4.7741    3.5074 N   0  0  0  0  0  0  0  0  0  0  0  0
    6.0203   -5.2980    4.7692 C   0  0  0  0  0  0  0  0  0  0  0  0
    5.3307   -6.5948    5.1205 C   0  0  0  0  0  0  0  0  0  0  0  0
    5.9460   -7.7880    4.6907 C   0  0  0  0  0  0  0  0  0  0  0  0
    5.4576   -9.0370    5.0709 C   0  0  0  0  0  0  0  0  0  0  0  0
    4.3468   -9.1214    5.8989 C   0  0  0  0  0  0  0  0  0  0  0  0
    3.6987   -7.9572    6.3116 C   0  0  0  0  0  0  0  0  0  0  0  0
    4.1597   -6.6900    5.8991 C   0  0  0  0  0  0  0  0  0  0  0  0
    3.4023   -5.5482    6.2699 N   0  0  0  0  0  0  0  0  0  0  0  0
    2.5219   -5.4382    7.3196 C   0  0  0  0  0  0  0  0  0  0  0  0
    1.9988   -4.1720    7.2216 C   0  0  0  0  0  0  0  0  0  0  0  0
    1.0428   -3.5686    8.1287 C   0  0  0  0  0  0  0  0  0  0  0  0
    0.5616   -2.2847    7.8971 C   0  0  0  0  0  0  0  0  0  0  0  0
   -0.3434   -1.7524    8.7989 C   0  0  0  0  0  0  0  0  0  0  0  0
   -0.7845   -2.4052    9.8979 N   0  0  0  0  0  0  0  0  0  0  0  0
   -0.3098   -3.6397   10.1122 C   0  0  0  0  0  0  0  0  0  0  0  0
   -0.7882   -4.3220   11.2282 N   0  0  0  0  0  0  0  0  0  0  0  0
    0.5863   -4.2572    9.2561 C   0  0  0  0  0  0  0  0  0  0  0  0
    2.5466   -3.5484    6.1357 N   0  0  0  0  0  0  0  0  0  0  0  0
    3.4064   -4.3862    5.5698 N   0  0  0  0  0  0  0  0  0  0  0  0
    6.6952   -4.0676    0.1132 C   0  0  0  0  0  0  0  0  0  0  0  0
    6.2897   -3.4484   -1.0709 C   0  0  0  0  0  0  0  0  0  0  0  0
    3.2991   -1.2884   -3.7215 H   0  0  0  0  0  0  0  0  0  0  0  0
    2.8514   -1.4037   -1.9299 H   0  0  0  0  0  0  0  0  0  0  0  0
    5.1973   -2.7434   -3.4099 H   0  0  0  0  0  0  0  0  0  0  0  0
    2.9530   -3.2382   -0.4303 H   0  0  0  0  0  0  0  0  0  0  0  0
    3.6582   -4.3191    1.6460 H   0  0  0  0  0  0  0  0  0  0  0  0
    4.7580   -4.1664    3.5310 H   0  0  0  0  0  0  0  0  0  0  0  0
    5.8703   -4.5363    5.5409 H   0  0  0  0  0  0  0  0  0  0  0  0
    7.1063   -5.4531    4.7401 H   0  0  0  0  0  0  0  0  0  0  0  0
    6.8308   -7.7413    4.0543 H   0  0  0  0  0  0  0  0  0  0  0  0
    5.9524   -9.9405    4.7237 H   0  0  0  0  0  0  0  0  0  0  0  0
    3.9694  -10.0938    6.2051 H   0  0  0  0  0  0  0  0  0  0  0  0
    2.8031   -8.0761    6.9162 H   0  0  0  0  0  0  0  0  0  0  0  0
    2.3871   -6.2281    8.0395 H   0  0  0  0  0  0  0  0  0  0  0  0
    0.8743   -1.7023    7.0343 H   0  0  0  0  0  0  0  0  0  0  0  0
   -0.7520   -0.7568    8.6599 H   0  0  0  0  0  0  0  0  0  0  0  0
   -1.3804   -3.6738   11.7402 H   0  0  0  0  0  0  0  0  0  0  0  0
   -0.0352   -4.6809   11.8024 H   0  0  0  0  0  0  0  0  0  0  0  0
    0.9077   -5.2667    9.4821 H   0  0  0  0  0  0  0  0  0  0  0  0
    7.7449   -4.3167    0.2575 H   0  0  0  0  0  0  0  0  0  0  0  0
    7.0401   -3.2246   -1.8261 H   0  0  0  0  0  0  0  0  0  0  0  0
  1  2  2  0  0  0  0
  1 31  1  0  0  0  0
  1 32  1  0  0  0  0
  2  3  1  0  0  0  0
  2 33  1  0  0  0  0
  3  4  2  0  0  0  0
  3 30  1  0  0  0  0
  4  5  1  0  0  0  0
  4 34  1  0  0  0  0
  5  6  2  0  0  0  0
  5 35  1  0  0  0  0
  6  7  1  0  0  0  0
  6 29  1  0  0  0  0
  7  8  2  0  0  0  0
  7  9  1  0  0  0  0
  9 10  1  0  0  0  0
  9 36  1  0  0  0  0
 10 11  1  0  0  0  0
 10 37  1  0  0  0  0
 10 38  1  0  0  0  0
 11 12  2  0  0  0  0
 11 16  1  0  0  0  0
 12 13  1  0  0  0  0
 12 39  1  0  0  0  0
 13 14  2  0  0  0  0
 13 40  1  0  0  0  0
 14 15  1  0  0  0  0
 14 41  1  0  0  0  0
 15 16  2  0  0  0  0
 15 42  1  0  0  0  0
 16 17  1  0  0  0  0
 17 18  1  0  0  0  0
 17 28  1  0  0  0  0
 18 19  2  0  0  0  0
 18 43  1  0  0  0  0
 19 20  1  0  0  0  0
 19 27  1  0  0  0  0
 20 21  2  0  0  0  0
 20 26  1  0  0  0  0
 21 22  1  0  0  0  0
 21 44  1  0  0  0  0
 22 23  2  0  0  0  0
 22 45  1  0  0  0  0
 23 24  1  0  0  0  0
 24 25  1  0  0  0  0
 24 26  2  0  0  0  0
 25 46  1  0  0  0  0
 25 47  1  0  0  0  0
 26 48  1  0  0  0  0
 27 28  2  0  0  0  0
 29 30  2  0  0  0  0
 29 49  1  0  0  0  0
 30 50  1  0  0  0  0
M  END
$$$$
