
 OpenBabel01122422353D

 60 63  0  0  0  0  0  0  0  0999 V2000
    8.5728   -3.1674    2.6854 C   0  0  0  0  0  0  0  0  0  0  0  0
    7.3834   -2.2438    2.9069 C   0  0  0  0  0  0  0  0  0  0  0  0
    6.6301   -2.2316    1.6970 O   0  0  0  0  0  0  0  0  0  0  0  0
    5.9729   -1.0804    1.4413 C   0  0  0  0  0  0  0  0  0  0  0  0
    6.0673   -0.5117    0.1983 C   0  0  0  0  0  0  0  0  0  0  0  0
    5.1595    0.5139    0.1553 N   0  0  0  0  0  0  0  0  0  0  0  0
    4.8000    1.3005   -0.9801 C   0  0  0  0  0  0  0  0  0  0  0  0
    5.3458    1.0340   -2.2472 C   0  0  0  0  0  0  0  0  0  0  0  0
    4.9748    1.8041   -3.3561 C   0  0  0  0  0  0  0  0  0  0  0  0
    4.0581    2.8419   -3.2122 C   0  0  0  0  0  0  0  0  0  0  0  0
    3.5019    3.1070   -1.9628 C   0  0  0  0  0  0  0  0  0  0  0  0
    3.8692    2.3407   -0.8505 C   0  0  0  0  0  0  0  0  0  0  0  0
    4.5719    0.6984    1.3695 N   0  0  0  0  0  0  0  0  0  0  0  0
    4.9808   -0.3354    2.1404 C   0  0  0  0  0  0  0  0  0  0  0  0
    4.4359   -0.5668    3.5004 C   0  0  0  0  0  0  0  0  0  0  0  0
    5.1581   -1.0303    4.3872 O   0  0  0  0  0  0  0  0  0  0  0  0
    3.0964   -0.2398    3.7868 N   0  0  0  0  0  0  0  0  0  0  0  0
    2.1248    0.2542    2.7945 C   0  0  0  0  0  0  0  0  0  0  0  0
    2.1169    1.7794    2.6250 C   0  0  0  0  0  0  0  0  0  0  0  0
    2.8849    2.4995    3.4977 N   0  0  0  0  0  0  0  0  0  0  0  0
    1.4195    2.3542    1.7928 O   0  0  0  0  0  0  0  0  0  0  0  0
    2.5658   -0.5241    5.1251 C   0  0  0  0  0  0  0  0  0  0  0  0
    1.8002   -1.8315    5.2520 C   0  0  0  0  0  0  0  0  0  0  0  0
    1.7848   -2.8091    4.2524 C   0  0  0  0  0  0  0  0  0  0  0  0
    1.0256   -3.9816    4.3952 C   0  0  0  0  0  0  0  0  0  0  0  0
    0.2776   -4.2501    5.5530 C   0  0  0  0  0  0  0  0  0  0  0  0
   -0.5260   -5.4941    5.6922 C   0  0  0  0  0  0  0  0  0  0  0  0
   -0.1350   -6.6957    5.0703 C   0  0  0  0  0  0  0  0  0  0  0  0
   -0.8882   -7.8693    5.1931 C   0  0  0  0  0  0  0  0  0  0  0  0
   -2.0510   -7.8750    5.9544 C   0  0  0  0  0  0  0  0  0  0  0  0
   -2.4660   -6.7047    6.5797 C   0  0  0  0  0  0  0  0  0  0  0  0
   -1.7166   -5.5290    6.4431 C   0  0  0  0  0  0  0  0  0  0  0  0
    0.3334   -3.2809    6.5695 C   0  0  0  0  0  0  0  0  0  0  0  0
    1.0725   -2.0929    6.4236 C   0  0  0  0  0  0  0  0  0  0  0  0
    9.1727   -3.2666    3.5943 H   0  0  0  0  0  0  0  0  0  0  0  0
    9.2112   -2.7902    1.8793 H   0  0  0  0  0  0  0  0  0  0  0  0
    8.2329   -4.1628    2.3779 H   0  0  0  0  0  0  0  0  0  0  0  0
    7.7420   -1.2463    3.1895 H   0  0  0  0  0  0  0  0  0  0  0  0
    6.7672   -2.6636    3.7058 H   0  0  0  0  0  0  0  0  0  0  0  0
    6.6722   -0.7937   -0.6481 H   0  0  0  0  0  0  0  0  0  0  0  0
    6.0492    0.2252   -2.4168 H   0  0  0  0  0  0  0  0  0  0  0  0
    5.3984    1.5880   -4.3335 H   0  0  0  0  0  0  0  0  0  0  0  0
    3.7696    3.4379   -4.0746 H   0  0  0  0  0  0  0  0  0  0  0  0
    2.7746    3.9079   -1.8502 H   0  0  0  0  0  0  0  0  0  0  0  0
    3.4083    2.5718    0.1063 H   0  0  0  0  0  0  0  0  0  0  0  0
    1.1163   -0.0395    3.1074 H   0  0  0  0  0  0  0  0  0  0  0  0
    2.3118   -0.2176    1.8261 H   0  0  0  0  0  0  0  0  0  0  0  0
    3.6444    2.0322    3.9747 H   0  0  0  0  0  0  0  0  0  0  0  0
    3.0152    3.4753    3.2652 H   0  0  0  0  0  0  0  0  0  0  0  0
    1.8933    0.3040    5.3871 H   0  0  0  0  0  0  0  0  0  0  0  0
    3.3786   -0.5226    5.8596 H   0  0  0  0  0  0  0  0  0  0  0  0
    2.3532   -2.6788    3.3351 H   0  0  0  0  0  0  0  0  0  0  0  0
    1.0253   -4.6817    3.5621 H   0  0  0  0  0  0  0  0  0  0  0  0
    0.7790   -6.7427    4.4826 H   0  0  0  0  0  0  0  0  0  0  0  0
   -0.5587   -8.7782    4.6963 H   0  0  0  0  0  0  0  0  0  0  0  0
   -2.6315   -8.7879    6.0589 H   0  0  0  0  0  0  0  0  0  0  0  0
   -3.3765   -6.7011    7.1736 H   0  0  0  0  0  0  0  0  0  0  0  0
   -2.0909   -4.6308    6.9287 H   0  0  0  0  0  0  0  0  0  0  0  0
   -0.1960   -3.4341    7.5091 H   0  0  0  0  0  0  0  0  0  0  0  0
    1.0739   -1.3738    7.2411 H   0  0  0  0  0  0  0  0  0  0  0  0
  1  2  1  0  0  0  0
  1 35  1  0  0  0  0
  1 36  1  0  0  0  0
  1 37  1  0  0  0  0
  2  3  1  0  0  0  0
  2 38  1  0  0  0  0
  2 39  1  0  0  0  0
  3  4  1  0  0  0  0
  4  5  2  0  0  0  0
  4 14  1  0  0  0  0
  5  6  1  0  0  0  0
  5 40  1  0  0  0  0
  6  7  1  0  0  0  0
  6 13  1  0  0  0  0
  7  8  2  0  0  0  0
  7 12  1  0  0  0  0
  8  9  1  0  0  0  0
  8 41  1  0  0  0  0
  9 10  2  0  0  0  0
  9 42  1  0  0  0  0
 10 11  1  0  0  0  0
 10 43  1  0  0  0  0
 11 12  2  0  0  0  0
 11 44  1  0  0  0  0
 12 45  1  0  0  0  0
 13 14  2  0  0  0  0
 14 15  1  0  0  0  0
 15 16  2  0  0  0  0
 15 17  1  0  0  0  0
 17 18  1  0  0  0  0
 17 22  1  0  0  0  0
 18 19  1  0  0  0  0
 18 46  1  0  0  0  0
 18 47  1  0  0  0  0
 19 20  1  0  0  0  0
 19 21  2  0  0  0  0
 20 48  1  0  0  0  0
 20 49  1  0  0  0  0
 22 23  1  0  0  0  0
 22 50  1  0  0  0  0
 22 51  1  0  0  0  0
 23 24  2  0  0  0  0
 23 34  1  0  0  0  0
 24 25  1  0  0  0  0
 24 52  1  0  0  0  0
 25 26  2  0  0  0  0
 25 53  1  0  0  0  0
 26 27  1  0  0  0  0
 26 33  1  0  0  0  0
 27 28  2  0  0  0  0
 27 32  1  0  0  0  0
 28 29  1  0  0  0  0
 28 54  1  0  0  0  0
 29 30  2  0  0  0  0
 29 55  1  0  0  0  0
 30 31  1  0  0  0  0
 30 56  1  0  0  0  0
 31 32  2  0  0  0  0
 31 57  1  0  0  0  0
 32 58  1  0  0  0  0
 33 34  2  0  0  0  0
 33 59  1  0  0  0  0
 34 60  1  0  0  0  0
M  END
$$$$
