
 OpenBabel01122422423D

 47 50  0  0  0  0  0  0  0  0999 V2000
    1.0345   -0.0829    0.1636 O   0  0  0  0  0  0  0  0  0  0  0  0
    2.2371   -0.1190   -0.0626 C   0  0  0  0  0  0  0  0  0  0  0  0
    2.9347   -1.2852   -0.2892 N   0  0  0  0  0  0  0  0  0  0  0  0
    2.2718   -2.5653   -0.2114 C   0  0  0  0  0  0  0  0  0  0  0  0
    2.9887   -3.5883   -1.0557 C   0  0  0  0  0  0  0  0  0  0  0  0
    4.0100   -4.3740   -0.5182 C   0  0  0  0  0  0  0  0  0  0  0  0
    4.6380   -5.2891   -1.3484 C   0  0  0  0  0  0  0  0  0  0  0  0
    4.3317   -5.4595   -2.6526 N   0  0  0  0  0  0  0  0  0  0  0  0
    3.3487   -4.6798   -3.1505 C   0  0  0  0  0  0  0  0  0  0  0  0
    2.6631   -3.7373   -2.4006 C   0  0  0  0  0  0  0  0  0  0  0  0
    3.0399    1.1329   -0.0560 C   0  0  0  0  0  0  0  0  0  0  0  0
    2.6097    2.2013    0.7344 C   0  0  0  0  0  0  0  0  0  0  0  0
    3.3462    3.3912    0.7812 C   0  0  0  0  0  0  0  0  0  0  0  0
    4.5093    3.5294    0.0252 C   0  0  0  0  0  0  0  0  0  0  0  0
    5.2954    4.6980    0.0016 N   0  0  0  0  0  0  0  0  0  0  0  0
    5.1234    5.8484    0.7560 C   0  0  0  0  0  0  0  0  0  0  0  0
    4.3463    6.0277    1.6803 O   0  0  0  0  0  0  0  0  0  0  0  0
    5.9415    6.9841    0.2597 C   0  0  0  0  0  0  0  0  0  0  0  0
    7.2999    6.7893   -0.0344 C   0  0  0  0  0  0  0  0  0  0  0  0
    7.9541    7.6637   -0.9049 C   0  0  0  0  0  0  0  0  0  0  0  0
    7.2254    8.6604   -1.5582 C   0  0  0  0  0  0  0  0  0  0  0  0
    5.8726    8.8453   -1.2472 C   0  0  0  0  0  0  0  0  0  0  0  0
    5.2748    8.0959   -0.2462 C   0  0  0  0  0  0  0  0  0  0  0  0
    3.9272    8.4928    0.1586 C   0  0  0  0  0  0  0  0  0  0  0  0
    3.1411    9.2046   -0.5874 N   0  0  0  0  0  0  0  0  0  0  0  0
    3.6477    9.6328   -1.7786 N   0  0  0  0  0  0  0  0  0  0  0  0
    4.9853    9.6417   -2.1074 C   0  0  0  0  0  0  0  0  0  0  0  0
    5.4164   10.1954   -3.1170 O   0  0  0  0  0  0  0  0  0  0  0  0
    4.9156    2.4697   -0.7991 C   0  0  0  0  0  0  0  0  0  0  0  0
    4.1897    1.2743   -0.8380 C   0  0  0  0  0  0  0  0  0  0  0  0
    3.9428   -1.2784   -0.2092 H   0  0  0  0  0  0  0  0  0  0  0  0
    1.2257   -2.4706   -0.5349 H   0  0  0  0  0  0  0  0  0  0  0  0
    2.2517   -2.8678    0.8408 H   0  0  0  0  0  0  0  0  0  0  0  0
    4.3068   -4.2919    0.5190 H   0  0  0  0  0  0  0  0  0  0  0  0
    5.4296   -5.9308   -0.9741 H   0  0  0  0  0  0  0  0  0  0  0  0
    3.1189   -4.8397   -4.2005 H   0  0  0  0  0  0  0  0  0  0  0  0
    1.8861   -3.1364   -2.8673 H   0  0  0  0  0  0  0  0  0  0  0  0
    1.6967    2.1163    1.3231 H   0  0  0  0  0  0  0  0  0  0  0  0
    2.9704    4.1973    1.4041 H   0  0  0  0  0  0  0  0  0  0  0  0
    6.0197    4.7089   -0.7067 H   0  0  0  0  0  0  0  0  0  0  0  0
    7.8346    5.9317    0.3692 H   0  0  0  0  0  0  0  0  0  0  0  0
    9.0043    7.5110   -1.1468 H   0  0  0  0  0  0  0  0  0  0  0  0
    7.6954    9.2590   -2.3371 H   0  0  0  0  0  0  0  0  0  0  0  0
    3.5698    8.2114    1.1636 H   0  0  0  0  0  0  0  0  0  0  0  0
    2.9997   10.1110   -2.3970 H   0  0  0  0  0  0  0  0  0  0  0  0
    5.8022    2.5553   -1.4235 H   0  0  0  0  0  0  0  0  0  0  0  0
    4.5171    0.4784   -1.5021 H   0  0  0  0  0  0  0  0  0  0  0  0
  1  2  2  0  0  0  0
  2  3  1  0  0  0  0
  2 11  1  0  0  0  0
  3  4  1  0  0  0  0
  3 31  1  0  0  0  0
  4  5  1  0  0  0  0
  4 32  1  0  0  0  0
  4 33  1  0  0  0  0
  5  6  2  0  0  0  0
  5 10  1  0  0  0  0
  6  7  1  0  0  0  0
  6 34  1  0  0  0  0
  7  8  2  0  0  0  0
  7 35  1  0  0  0  0
  8  9  1  0  0  0  0
  9 10  2  0  0  0  0
  9 36  1  0  0  0  0
 10 37  1  0  0  0  0
 11 12  2  0  0  0  0
 11 30  1  0  0  0  0
 12 13  1  0  0  0  0
 12 38  1  0  0  0  0
 13 14  2  0  0  0  0
 13 39  1  0  0  0  0
 14 15  1  0  0  0  0
 14 29  1  0  0  0  0
 15 16  1  0  0  0  0
 15 40  1  0  0  0  0
 16 17  2  0  0  0  0
 16 18  1  0  0  0  0
 18 19  2  0  0  0  0
 18 23  1  0  0  0  0
 19 20  1  0  0  0  0
 19 41  1  0  0  0  0
 20 21  2  0  0  0  0
 20 42  1  0  0  0  0
 21 22  1  0  0  0  0
 21 43  1  0  0  0  0
 22 23  2  0  0  0  0
 22 27  1  0  0  0  0
 23 24  1  0  0  0  0
 24 25  2  0  0  0  0
 24 44  1  0  0  0  0
 25 26  1  0  0  0  0
 26 27  1  0  0  0  0
 26 45  1  0  0  0  0
 27 28  2  0  0  0  0
 29 30  2  0  0  0  0
 29 46  1  0  0  0  0
 30 47  1  0  0  0  0
M  END
$$$$
