
 OpenBabel01122422423D

 46 49  0  0  1  0  0  0  0  0999 V2000
    2.9405   -0.0131    1.0010 O   0  0  0  0  0  0  0  0  0  0  0  0
    2.3849    0.1999   -0.0754 C   0  0  0  0  0  0  0  0  0  0  0  0
    0.8661    0.3197   -0.1869 C   0  0  0  0  0  0  0  0  0  0  0  0
    0.4426    1.6485    0.2243 N   0  0  0  0  0  0  0  0  0  0  0  0
    0.1747    1.9063    1.5469 C   0  0  0  0  0  0  0  0  0  0  0  0
   -0.2101    3.0468    2.0126 N   0  0  0  0  0  0  0  0  0  0  0  0
   -0.3492    4.1083    1.1084 C   0  0  0  0  0  0  0  0  0  0  0  0
   -0.7231    5.3642    1.5971 C   0  0  0  0  0  0  0  0  0  0  0  0
   -0.8520    6.4512    0.7292 C   0  0  0  0  0  0  0  0  0  0  0  0
   -0.6196    6.2752   -0.6313 C   0  0  0  0  0  0  0  0  0  0  0  0
   -0.7426    7.3211   -1.4584 F   0  0  0  0  0  0  0  0  0  0  0  0
   -0.2551    5.0364   -1.1424 C   0  0  0  0  0  0  0  0  0  0  0  0
   -0.1136    3.9599   -0.2620 C   0  0  0  0  0  0  0  0  0  0  0  0
    0.3104    2.6310   -0.7440 C   0  0  0  0  0  0  0  0  0  0  0  0
    0.5263    2.4388   -1.9372 O   0  0  0  0  0  0  0  0  0  0  0  0
    3.0750    0.4153   -1.2402 N   0  0  0  0  0  0  0  0  0  0  0  0
    4.5191    0.2903   -1.3285 C   0  0  3  0  0  0  0  0  0  0  0  0
    4.9131   -1.1169   -1.7655 C   0  0  0  0  0  0  0  0  0  0  0  0
    4.4888   -1.6326   -3.0025 C   0  0  0  0  0  0  0  0  0  0  0  0
    4.8578   -2.9144   -3.4093 C   0  0  0  0  0  0  0  0  0  0  0  0
    5.6582   -3.7051   -2.5874 C   0  0  0  0  0  0  0  0  0  0  0  0
    6.0974   -3.2222   -1.3467 C   0  0  0  0  0  0  0  0  0  0  0  0
    6.9642   -4.0727   -0.4483 C   0  0  0  0  0  0  0  0  0  0  0  0
    7.2195   -5.3143   -0.9474 F   0  0  0  0  0  0  0  0  0  0  0  0
    8.1820   -3.5058   -0.2197 F   0  0  0  0  0  0  0  0  0  0  0  0
    6.4085   -4.2701    0.7786 F   0  0  0  0  0  0  0  0  0  0  0  0
    5.7197   -1.9260   -0.9452 C   0  0  0  0  0  0  0  0  0  0  0  0
    5.0306    1.3259   -2.2831 C   0  0  0  0  0  0  0  0  0  0  0  0
    4.3980    1.8670   -3.3083 N   0  0  0  0  0  0  0  0  0  0  0  0
    5.2648    2.7315   -3.9343 N   0  0  0  0  0  0  0  0  0  0  0  0
    6.4017    2.7015   -3.2805 C   0  0  0  0  0  0  0  0  0  0  0  0
    6.3023    1.8406   -2.2335 N   0  0  0  0  0  0  0  0  0  0  0  0
    0.4194   -0.4360    0.4690 H   0  0  0  0  0  0  0  0  0  0  0  0
    0.5453    0.1058   -1.2119 H   0  0  0  0  0  0  0  0  0  0  0  0
    0.3063    1.0464    2.2235 H   0  0  0  0  0  0  0  0  0  0  0  0
   -0.9046    5.4939    2.6614 H   0  0  0  0  0  0  0  0  0  0  0  0
   -1.1274    7.4315    1.1066 H   0  0  0  0  0  0  0  0  0  0  0  0
   -0.0754    4.9222   -2.2071 H   0  0  0  0  0  0  0  0  0  0  0  0
    2.5905    0.7561   -2.0679 H   0  0  0  0  0  0  0  0  0  0  0  0
    4.9434    0.4936   -0.3369 H   0  0  0  0  0  0  0  0  0  0  0  0
    3.8701   -1.0283   -3.6658 H   0  0  0  0  0  0  0  0  0  0  0  0
    4.5221   -3.2939   -4.3717 H   0  0  0  0  0  0  0  0  0  0  0  0
    5.9368   -4.7040   -2.9210 H   0  0  0  0  0  0  0  0  0  0  0  0
    6.0563   -1.5551    0.0236 H   0  0  0  0  0  0  0  0  0  0  0  0
    7.2936    3.2617   -3.5185 H   0  0  0  0  0  0  0  0  0  0  0  0
    7.0248    1.6069   -1.5685 H   0  0  0  0  0  0  0  0  0  0  0  0
  1  2  2  0  0  0  0
  2  3  1  0  0  0  0
  2 16  1  0  0  0  0
  3  4  1  0  0  0  0
  3 33  1  0  0  0  0
  3 34  1  0  0  0  0
  4  5  1  0  0  0  0
  4 14  1  0  0  0  0
  5  6  2  0  0  0  0
  5 35  1  0  0  0  0
  6  7  1  0  0  0  0
  7  8  2  0  0  0  0
  7 13  1  0  0  0  0
  8  9  1  0  0  0  0
  8 36  1  0  0  0  0
  9 10  2  0  0  0  0
  9 37  1  0  0  0  0
 10 11  1  0  0  0  0
 10 12  1  0  0  0  0
 12 13  2  0  0  0  0
 12 38  1  0  0  0  0
 13 14  1  0  0  0  0
 14 15  2  0  0  0  0
 16 17  1  0  0  0  0
 16 39  1  0  0  0  0
 17 18  1  0  0  0  0
 17 28  1  0  0  0  0
 17 40  1  0  0  0  0
 18 19  2  0  0  0  0
 18 27  1  0  0  0  0
 19 20  1  0  0  0  0
 19 41  1  0  0  0  0
 20 21  2  0  0  0  0
 20 42  1  0  0  0  0
 21 22  1  0  0  0  0
 21 43  1  0  0  0  0
 22 23  1  0  0  0  0
 22 27  2  0  0  0  0
 23 24  1  0  0  0  0
 23 25  1  0  0  0  0
 23 26  1  0  0  0  0
 27 44  1  0  0  0  0
 28 29  2  0  0  0  0
 28 32  1  0  0  0  0
 29 30  1  0  0  0  0
 30 31  2  0  0  0  0
 31 32  1  0  0  0  0
 31 45  1  0  0  0  0
 32 46  1  0  0  0  0
M  END
$$$$
