
 OpenBabel01122422423D

 42 45  0  0  0  0  0  0  0  0999 V2000
    1.1673   -0.3103    0.0245 O   0  0  0  0  0  0  0  0  0  0  0  0
    2.3631   -0.0284   -0.0354 C   0  0  0  0  0  0  0  0  0  0  0  0
    2.9371    1.1303    0.4231 N   0  0  0  0  0  0  0  0  0  0  0  0
    2.3216    2.2006    1.0970 C   0  0  0  0  0  0  0  0  0  0  0  0
    1.0244    2.1424    1.5997 C   0  0  0  0  0  0  0  0  0  0  0  0
    0.4712    3.2477    2.2405 C   0  0  0  0  0  0  0  0  0  0  0  0
    1.2147    4.4188    2.3870 C   0  0  0  0  0  0  0  0  0  0  0  0
    2.5393    4.5079    1.9243 C   0  0  0  0  0  0  0  0  0  0  0  0
    3.3313    5.7354    2.1277 C   0  0  0  0  0  0  0  0  0  0  0  0
    3.2094    6.5348    3.2564 C   0  0  0  0  0  0  0  0  0  0  0  0
    3.9123    7.6654    3.4908 N   0  0  0  0  0  0  0  0  0  0  0  0
    4.7898    8.0063    2.5396 C   0  0  0  0  0  0  0  0  0  0  0  0
    5.0125    7.3333    1.4027 N   0  0  0  0  0  0  0  0  0  0  0  0
    4.2706    6.2141    1.2271 C   0  0  0  0  0  0  0  0  0  0  0  0
    3.0740    3.3742    1.2788 C   0  0  0  0  0  0  0  0  0  0  0  0
    3.2064   -0.9395   -0.6019 N   0  0  0  0  0  0  0  0  0  0  0  0
    4.5545   -0.8598   -0.7743 C   0  0  0  0  0  0  0  0  0  0  0  0
    5.3199    0.1969   -0.4983 N   0  0  0  0  0  0  0  0  0  0  0  0
    6.5606   -0.2531   -0.8085 N   0  0  0  0  0  0  0  0  0  0  0  0
    7.7033    0.5633   -0.6408 C   0  0  0  0  0  0  0  0  0  0  0  0
    7.5441    1.8974   -0.2340 C   0  0  0  0  0  0  0  0  0  0  0  0
    8.6630    2.7032   -0.0508 C   0  0  0  0  0  0  0  0  0  0  0  0
    8.4986    3.9750    0.3334 F   0  0  0  0  0  0  0  0  0  0  0  0
    9.9424    2.2138   -0.2622 C   0  0  0  0  0  0  0  0  0  0  0  0
   10.0936    0.8956   -0.6699 C   0  0  0  0  0  0  0  0  0  0  0  0
   11.3227    0.4078   -0.8756 F   0  0  0  0  0  0  0  0  0  0  0  0
    8.9923    0.0625   -0.8653 C   0  0  0  0  0  0  0  0  0  0  0  0
    6.4717   -1.5455   -1.2600 C   0  0  0  0  0  0  0  0  0  0  0  0
    5.2195   -1.9407   -1.2647 N   0  0  0  0  0  0  0  0  0  0  0  0
    3.9187    1.2353    0.1802 H   0  0  0  0  0  0  0  0  0  0  0  0
    0.4214    1.2433    1.5209 H   0  0  0  0  0  0  0  0  0  0  0  0
   -0.5439    3.1940    2.6261 H   0  0  0  0  0  0  0  0  0  0  0  0
    0.7324    5.2677    2.8683 H   0  0  0  0  0  0  0  0  0  0  0  0
    2.5189    6.2788    4.0561 H   0  0  0  0  0  0  0  0  0  0  0  0
    5.3716    8.9063    2.7059 H   0  0  0  0  0  0  0  0  0  0  0  0
    4.4692    5.7048    0.2885 H   0  0  0  0  0  0  0  0  0  0  0  0
    4.0974    3.4001    0.9104 H   0  0  0  0  0  0  0  0  0  0  0  0
    2.7801   -1.8027   -0.9020 H   0  0  0  0  0  0  0  0  0  0  0  0
    6.5632    2.3328   -0.0580 H   0  0  0  0  0  0  0  0  0  0  0  0
   10.8080    2.8488   -0.1119 H   0  0  0  0  0  0  0  0  0  0  0  0
    9.1875   -0.9587   -1.1765 H   0  0  0  0  0  0  0  0  0  0  0  0
    7.3186   -2.1387   -1.5703 H   0  0  0  0  0  0  0  0  0  0  0  0
  1  2  2  0  0  0  0
  2  3  1  0  0  0  0
  2 16  1  0  0  0  0
  3  4  1  0  0  0  0
  3 30  1  0  0  0  0
  4  5  2  0  0  0  0
  4 15  1  0  0  0  0
  5  6  1  0  0  0  0
  5 31  1  0  0  0  0
  6  7  2  0  0  0  0
  6 32  1  0  0  0  0
  7  8  1  0  0  0  0
  7 33  1  0  0  0  0
  8  9  1  0  0  0  0
  8 15  2  0  0  0  0
  9 10  2  0  0  0  0
  9 14  1  0  0  0  0
 10 11  1  0  0  0  0
 10 34  1  0  0  0  0
 11 12  2  0  0  0  0
 12 13  1  0  0  0  0
 12 35  1  0  0  0  0
 13 14  2  0  0  0  0
 14 36  1  0  0  0  0
 15 37  1  0  0  0  0
 16 17  1  0  0  0  0
 16 38  1  0  0  0  0
 17 18  2  0  0  0  0
 17 29  1  0  0  0  0
 18 19  1  0  0  0  0
 19 20  1  0  0  0  0
 19 28  1  0  0  0  0
 20 21  2  0  0  0  0
 20 27  1  0  0  0  0
 21 22  1  0  0  0  0
 21 39  1  0  0  0  0
 22 23  1  0  0  0  0
 22 24  2  0  0  0  0
 24 25  1  0  0  0  0
 24 40  1  0  0  0  0
 25 26  1  0  0  0  0
 25 27  2  0  0  0  0
 27 41  1  0  0  0  0
 28 29  2  0  0  0  0
 28 42  1  0  0  0  0
M  END
$$$$
