
 OpenBabel01122422423D

 45 48  0  0  0  0  0  0  0  0999 V2000
    0.3385    1.3894   -0.3579 O   0  0  0  0  0  0  0  0  0  0  0  0
    1.4959    1.5965   -0.7092 C   0  0  0  0  0  0  0  0  0  0  0  0
    2.4849    1.9398    0.1833 N   0  0  0  0  0  0  0  0  0  0  0  0
    2.2124    1.9613    1.6093 C   0  0  0  0  0  0  0  0  0  0  0  0
    3.0954    2.9437    2.2758 C   0  0  0  0  0  0  0  0  0  0  0  0
    2.9385    4.3029    2.4417 C   0  0  0  0  0  0  0  0  0  0  0  0
    4.0833    4.7170    3.0883 N   0  0  0  0  0  0  0  0  0  0  0  0
    4.4389    6.0389    3.4626 C   0  0  0  0  0  0  0  0  0  0  0  0
    3.3824    6.8813    3.8793 C   0  0  0  0  0  0  0  0  0  0  0  0
    3.6432    8.1468    4.3947 C   0  0  0  0  0  0  0  0  0  0  0  0
    4.9527    8.5908    4.4847 C   0  0  0  0  0  0  0  0  0  0  0  0
    5.9972    7.7871    4.0136 C   0  0  0  0  0  0  0  0  0  0  0  0
    5.7855    6.4968    3.4681 C   0  0  0  0  0  0  0  0  0  0  0  0
    6.9504    5.7874    2.8447 C   0  0  0  0  0  0  0  0  0  0  0  0
    8.2582    5.9154    3.3552 C   0  0  0  0  0  0  0  0  0  0  0  0
    9.3513    5.2687    2.7622 C   0  0  0  0  0  0  0  0  0  0  0  0
    9.1615    4.4379    1.6643 C   0  0  0  0  0  0  0  0  0  0  0  0
    7.8897    4.2984    1.1279 C   0  0  0  0  0  0  0  0  0  0  0  0
    6.8150    5.0012    1.6829 C   0  0  0  0  0  0  0  0  0  0  0  0
    4.8457    3.6358    3.3765 N   0  0  0  0  0  0  0  0  0  0  0  0
    4.2667    2.5591    2.8640 N   0  0  0  0  0  0  0  0  0  0  0  0
    1.8422    1.4944   -2.1488 C   0  0  0  0  0  0  0  0  0  0  0  0
    0.8060    1.2541   -3.0590 C   0  0  0  0  0  0  0  0  0  0  0  0
    1.0894    1.1850   -4.4155 C   0  0  0  0  0  0  0  0  0  0  0  0
    0.1111    0.9688   -5.2965 F   0  0  0  0  0  0  0  0  0  0  0  0
    2.3966    1.3535   -4.8397 C   0  0  0  0  0  0  0  0  0  0  0  0
    3.4305    1.5734   -3.9926 N   0  0  0  0  0  0  0  0  0  0  0  0
    3.1184    1.6359   -2.6796 C   0  0  0  0  0  0  0  0  0  0  0  0
    4.2176    1.8501   -1.9125 O   0  0  0  0  0  0  0  0  0  0  0  0
    3.4535    1.9481   -0.1255 H   0  0  0  0  0  0  0  0  0  0  0  0
    2.3837    0.9517    1.9947 H   0  0  0  0  0  0  0  0  0  0  0  0
    1.1626    2.2175    1.7856 H   0  0  0  0  0  0  0  0  0  0  0  0
    2.1763    4.9891    2.1049 H   0  0  0  0  0  0  0  0  0  0  0  0
    2.3481    6.5428    3.8696 H   0  0  0  0  0  0  0  0  0  0  0  0
    2.8278    8.7762    4.7437 H   0  0  0  0  0  0  0  0  0  0  0  0
    5.1695    9.5713    4.9026 H   0  0  0  0  0  0  0  0  0  0  0  0
    6.9986    8.2128    4.0529 H   0  0  0  0  0  0  0  0  0  0  0  0
    8.4545    6.5235    4.2350 H   0  0  0  0  0  0  0  0  0  0  0  0
   10.3486    5.4048    3.1714 H   0  0  0  0  0  0  0  0  0  0  0  0
    9.9995    3.9020    1.2282 H   0  0  0  0  0  0  0  0  0  0  0  0
    7.7208    3.6393    0.2809 H   0  0  0  0  0  0  0  0  0  0  0  0
    5.8516    4.8884    1.1940 H   0  0  0  0  0  0  0  0  0  0  0  0
   -0.2223    1.1235   -2.7220 H   0  0  0  0  0  0  0  0  0  0  0  0
    2.6387    1.3140   -5.8952 H   0  0  0  0  0  0  0  0  0  0  0  0
    4.9023    1.8799   -2.6096 H   0  0  0  0  0  0  0  0  0  0  0  0
  1  2  2  0  0  0  0
  2  3  1  0  0  0  0
  2 22  1  0  0  0  0
  3  4  1  0  0  0  0
  3 30  1  0  0  0  0
  4  5  1  0  0  0  0
  4 31  1  0  0  0  0
  4 32  1  0  0  0  0
  5  6  2  0  0  0  0
  5 21  1  0  0  0  0
  6  7  1  0  0  0  0
  6 33  1  0  0  0  0
  7  8  1  0  0  0  0
  7 20  1  0  0  0  0
  8  9  2  0  0  0  0
  8 13  1  0  0  0  0
  9 10  1  0  0  0  0
  9 34  1  0  0  0  0
 10 11  2  0  0  0  0
 10 35  1  0  0  0  0
 11 12  1  0  0  0  0
 11 36  1  0  0  0  0
 12 13  2  0  0  0  0
 12 37  1  0  0  0  0
 13 14  1  0  0  0  0
 14 15  2  0  0  0  0
 14 19  1  0  0  0  0
 15 16  1  0  0  0  0
 15 38  1  0  0  0  0
 16 17  2  0  0  0  0
 16 39  1  0  0  0  0
 17 18  1  0  0  0  0
 17 40  1  0  0  0  0
 18 19  2  0  0  0  0
 18 41  1  0  0  0  0
 19 42  1  0  0  0  0
 20 21  2  0  0  0  0
 22 23  2  0  0  0  0
 22 28  1  0  0  0  0
 23 24  1  0  0  0  0
 23 43  1  0  0  0  0
 24 25  1  0  0  0  0
 24 26  2  0  0  0  0
 26 27  1  0  0  0  0
 26 44  1  0  0  0  0
 27 28  2  0  0  0  0
 28 29  1  0  0  0  0
 29 45  1  0  0  0  0
M  END
$$$$
