
 OpenBabel01122422423D

 50 53  0  0  0  0  0  0  0  0999 V2000
    0.3604    1.4801   -0.5272 C   0  0  0  0  0  0  0  0  0  0  0  0
    0.9543    0.3656    0.1717 N   0  0  0  0  0  0  0  0  0  0  0  0
    0.6670   -0.9523   -0.0655 C   0  0  0  0  0  0  0  0  0  0  0  0
    1.4049   -1.7281    0.8094 C   0  0  0  0  0  0  0  0  0  0  0  0
    1.3608   -3.2270    0.9199 C   0  0  0  0  0  0  0  0  0  0  0  0
    2.4228   -3.9340    0.0730 C   0  0  0  0  0  0  0  0  0  0  0  0
    2.3408   -5.4461    0.2491 C   0  0  0  0  0  0  0  0  0  0  0  0
    1.2859   -6.0261    0.4899 O   0  0  0  0  0  0  0  0  0  0  0  0
    3.5660   -6.1073    0.1311 N   0  0  0  0  0  0  0  0  0  0  0  0
    3.6947   -7.4902    0.2544 C   0  0  0  0  0  0  0  0  0  0  0  0
    3.0324   -8.4037   -0.4914 C   0  0  0  0  0  0  0  0  0  0  0  0
    2.0624   -7.9524   -1.5711 C   0  0  0  0  0  0  0  0  0  0  0  0
    1.2577   -7.5779   -2.4668 N   0  0  0  0  0  0  0  0  0  0  0  0
    3.1624   -9.8581   -0.2449 C   0  0  0  0  0  0  0  0  0  0  0  0
    2.6022  -10.6482   -1.0045 O   0  0  0  0  0  0  0  0  0  0  0  0
    3.9757  -10.2169    0.8455 N   0  0  0  0  0  0  0  0  0  0  0  0
    4.1425  -11.6099    1.1118 C   0  0  0  0  0  0  0  0  0  0  0  0
    5.4348  -12.1436    1.2320 C   0  0  0  0  0  0  0  0  0  0  0  0
    5.6144  -13.5167    1.3817 C   0  0  0  0  0  0  0  0  0  0  0  0
    4.5066  -14.3608    1.4593 C   0  0  0  0  0  0  0  0  0  0  0  0
    3.2210  -13.8372    1.3782 C   0  0  0  0  0  0  0  0  0  0  0  0
    3.0394  -12.4665    1.1947 C   0  0  0  0  0  0  0  0  0  0  0  0
    4.6779   -9.2601    1.5682 C   0  0  0  0  0  0  0  0  0  0  0  0
    4.5869   -7.9527    1.2922 C   0  0  0  0  0  0  0  0  0  0  0  0
    2.1688   -0.8209    1.6153 C   0  0  0  0  0  0  0  0  0  0  0  0
    3.0779   -0.9874    2.6835 C   0  0  0  0  0  0  0  0  0  0  0  0
    3.6690    0.1351    3.2753 C   0  0  0  0  0  0  0  0  0  0  0  0
    3.3683    1.4176    2.8264 C   0  0  0  0  0  0  0  0  0  0  0  0
    2.4630    1.6113    1.7766 C   0  0  0  0  0  0  0  0  0  0  0  0
    1.8769    0.4762    1.1906 C   0  0  0  0  0  0  0  0  0  0  0  0
   -0.3330    1.1153   -1.2871 H   0  0  0  0  0  0  0  0  0  0  0  0
    1.1591    2.0603   -1.0003 H   0  0  0  0  0  0  0  0  0  0  0  0
   -0.1797    2.0990    0.2007 H   0  0  0  0  0  0  0  0  0  0  0  0
   -0.0522   -1.2386   -0.8225 H   0  0  0  0  0  0  0  0  0  0  0  0
    0.3593   -3.5751    0.6350 H   0  0  0  0  0  0  0  0  0  0  0  0
    1.4868   -3.5128    1.9724 H   0  0  0  0  0  0  0  0  0  0  0  0
    3.4229   -3.5759    0.3435 H   0  0  0  0  0  0  0  0  0  0  0  0
    2.2686   -3.7142   -0.9898 H   0  0  0  0  0  0  0  0  0  0  0  0
    4.3617   -5.5470    0.4167 H   0  0  0  0  0  0  0  0  0  0  0  0
    6.3082  -11.5062    1.1278 H   0  0  0  0  0  0  0  0  0  0  0  0
    6.6172  -13.9308    1.4141 H   0  0  0  0  0  0  0  0  0  0  0  0
    4.6509  -15.4358    1.5624 H   0  0  0  0  0  0  0  0  0  0  0  0
    2.3576  -14.4963    1.4397 H   0  0  0  0  0  0  0  0  0  0  0  0
    2.0276  -12.0753    1.1207 H   0  0  0  0  0  0  0  0  0  0  0  0
    5.2716   -9.6113    2.4079 H   0  0  0  0  0  0  0  0  0  0  0  0
    5.1091   -7.2314    1.9119 H   0  0  0  0  0  0  0  0  0  0  0  0
    3.3133   -1.9786    3.0511 H   0  0  0  0  0  0  0  0  0  0  0  0
    4.3673    0.0025    4.0978 H   0  0  0  0  0  0  0  0  0  0  0  0
    3.8324    2.2778    3.2969 H   0  0  0  0  0  0  0  0  0  0  0  0
    2.2221    2.6139    1.4384 H   0  0  0  0  0  0  0  0  0  0  0  0
  1  2  1  0  0  0  0
  1 31  1  0  0  0  0
  1 32  1  0  0  0  0
  1 33  1  0  0  0  0
  2  3  1  0  0  0  0
  2 30  1  0  0  0  0
  3  4  2  0  0  0  0
  3 34  1  0  0  0  0
  4  5  1  0  0  0  0
  4 25  1  0  0  0  0
  5  6  1  0  0  0  0
  5 35  1  0  0  0  0
  5 36  1  0  0  0  0
  6  7  1  0  0  0  0
  6 37  1  0  0  0  0
  6 38  1  0  0  0  0
  7  8  2  0  0  0  0
  7  9  1  0  0  0  0
  9 10  1  0  0  0  0
  9 39  1  0  0  0  0
 10 11  2  0  0  0  0
 10 24  1  0  0  0  0
 11 12  1  0  0  0  0
 11 14  1  0  0  0  0
 12 13  3  0  0  0  0
 14 15  2  0  0  0  0
 14 16  1  0  0  0  0
 16 17  1  0  0  0  0
 16 23  1  0  0  0  0
 17 18  2  0  0  0  0
 17 22  1  0  0  0  0
 18 19  1  0  0  0  0
 18 40  1  0  0  0  0
 19 20  2  0  0  0  0
 19 41  1  0  0  0  0
 20 21  1  0  0  0  0
 20 42  1  0  0  0  0
 21 22  2  0  0  0  0
 21 43  1  0  0  0  0
 22 44  1  0  0  0  0
 23 24  2  0  0  0  0
 23 45  1  0  0  0  0
 24 46  1  0  0  0  0
 25 26  2  0  0  0  0
 25 30  1  0  0  0  0
 26 27  1  0  0  0  0
 26 47  1  0  0  0  0
 27 28  2  0  0  0  0
 27 48  1  0  0  0  0
 28 29  1  0  0  0  0
 28 49  1  0  0  0  0
 29 30  2  0  0  0  0
 29 50  1  0  0  0  0
M  END
$$$$
