
 OpenBabel01122422423D

 49 52  0  0  0  0  0  0  0  0999 V2000
    0.4187   -0.1644   -0.7264 C   0  0  0  0  0  0  0  0  0  0  0  0
    1.8643   -0.0887   -0.7472 N   0  0  0  0  0  0  0  0  0  0  0  0
    2.7371    0.9569   -0.7219 C   0  0  0  0  0  0  0  0  0  0  0  0
    2.3302    2.3618   -0.5334 C   0  0  0  0  0  0  0  0  0  0  0  0
    1.2871    2.7155    0.3256 C   0  0  0  0  0  0  0  0  0  0  0  0
    0.9054    4.0521    0.4451 C   0  0  0  0  0  0  0  0  0  0  0  0
    1.5958    5.0515   -0.2517 C   0  0  0  0  0  0  0  0  0  0  0  0
    1.1581    6.4588   -0.0588 C   0  0  0  0  0  0  0  0  0  0  0  0
    0.6147    6.7458    1.0013 O   0  0  0  0  0  0  0  0  0  0  0  0
    1.3559    7.3079   -1.1279 N   0  0  0  0  0  0  0  0  0  0  0  0
    1.0413    8.6829   -1.1583 C   0  0  0  0  0  0  0  0  0  0  0  0
    0.7199    9.4345   -0.0303 C   0  0  0  0  0  0  0  0  0  0  0  0
    0.3877   10.7827   -0.1625 C   0  0  0  0  0  0  0  0  0  0  0  0
    0.4202   11.3475   -1.4242 C   0  0  0  0  0  0  0  0  0  0  0  0
    0.0579   12.6759   -1.5212 O   0  0  0  0  0  0  0  0  0  0  0  0
    0.5542   13.2668   -2.7219 C   0  0  0  0  0  0  0  0  0  0  0  0
    0.0772   14.6958   -2.8426 C   0  0  0  0  0  0  0  0  0  0  0  0
    0.2922   15.6236   -1.8144 C   0  0  0  0  0  0  0  0  0  0  0  0
   -0.0865   16.9580   -1.9772 C   0  0  0  0  0  0  0  0  0  0  0  0
   -0.6816   17.3767   -3.1666 C   0  0  0  0  0  0  0  0  0  0  0  0
   -0.9082   16.4616   -4.1916 C   0  0  0  0  0  0  0  0  0  0  0  0
   -0.5308   15.1288   -4.0309 C   0  0  0  0  0  0  0  0  0  0  0  0
    0.7515   10.6622   -2.5395 N   0  0  0  0  0  0  0  0  0  0  0  0
    1.0500    9.3519   -2.3792 C   0  0  0  0  0  0  0  0  0  0  0  0
    2.6925    4.7094   -1.0521 C   0  0  0  0  0  0  0  0  0  0  0  0
    3.0531    3.3657   -1.1940 C   0  0  0  0  0  0  0  0  0  0  0  0
    3.9846    0.6131   -0.9090 N   0  0  0  0  0  0  0  0  0  0  0  0
    3.9393   -0.7449   -1.0430 N   0  0  0  0  0  0  0  0  0  0  0  0
    2.6370   -1.2035   -0.9569 C   0  0  0  0  0  0  0  0  0  0  0  0
    2.2682   -2.3629   -1.0724 O   0  0  0  0  0  0  0  0  0  0  0  0
   -0.0509    0.8145   -0.7944 H   0  0  0  0  0  0  0  0  0  0  0  0
    0.1124   -0.6677    0.1956 H   0  0  0  0  0  0  0  0  0  0  0  0
    0.0816   -0.7692   -1.5750 H   0  0  0  0  0  0  0  0  0  0  0  0
    0.7702    1.9721    0.9259 H   0  0  0  0  0  0  0  0  0  0  0  0
    0.0731    4.3150    1.0971 H   0  0  0  0  0  0  0  0  0  0  0  0
    1.6309    6.8912   -2.0116 H   0  0  0  0  0  0  0  0  0  0  0  0
    0.7244    9.0064    0.9669 H   0  0  0  0  0  0  0  0  0  0  0  0
    0.1199   11.3756    0.7047 H   0  0  0  0  0  0  0  0  0  0  0  0
    0.2088   12.7101   -3.6017 H   0  0  0  0  0  0  0  0  0  0  0  0
    1.6519   13.2724   -2.7050 H   0  0  0  0  0  0  0  0  0  0  0  0
    0.7622   15.3106   -0.8846 H   0  0  0  0  0  0  0  0  0  0  0  0
    0.0889   17.6737   -1.1782 H   0  0  0  0  0  0  0  0  0  0  0  0
   -0.9674   18.4170   -3.2958 H   0  0  0  0  0  0  0  0  0  0  0  0
   -1.3720   16.7848   -5.1196 H   0  0  0  0  0  0  0  0  0  0  0  0
   -0.7074   14.4280   -4.8441 H   0  0  0  0  0  0  0  0  0  0  0  0
    1.2883    8.8382   -3.3060 H   0  0  0  0  0  0  0  0  0  0  0  0
    3.2957    5.4693   -1.5407 H   0  0  0  0  0  0  0  0  0  0  0  0
    3.9088    3.1041   -1.8151 H   0  0  0  0  0  0  0  0  0  0  0  0
    4.7580   -1.3097   -1.2197 H   0  0  0  0  0  0  0  0  0  0  0  0
  1  2  1  0  0  0  0
  1 31  1  0  0  0  0
  1 32  1  0  0  0  0
  1 33  1  0  0  0  0
  2  3  1  0  0  0  0
  2 29  1  0  0  0  0
  3  4  1  0  0  0  0
  3 27  2  0  0  0  0
  4  5  2  0  0  0  0
  4 26  1  0  0  0  0
  5  6  1  0  0  0  0
  5 34  1  0  0  0  0
  6  7  2  0  0  0  0
  6 35  1  0  0  0  0
  7  8  1  0  0  0  0
  7 25  1  0  0  0  0
  8  9  2  0  0  0  0
  8 10  1  0  0  0  0
 10 11  1  0  0  0  0
 10 36  1  0  0  0  0
 11 12  2  0  0  0  0
 11 24  1  0  0  0  0
 12 13  1  0  0  0  0
 12 37  1  0  0  0  0
 13 14  2  0  0  0  0
 13 38  1  0  0  0  0
 14 15  1  0  0  0  0
 14 23  1  0  0  0  0
 15 16  1  0  0  0  0
 16 17  1  0  0  0  0
 16 39  1  0  0  0  0
 16 40  1  0  0  0  0
 17 18  2  0  0  0  0
 17 22  1  0  0  0  0
 18 19  1  0  0  0  0
 18 41  1  0  0  0  0
 19 20  2  0  0  0  0
 19 42  1  0  0  0  0
 20 21  1  0  0  0  0
 20 43  1  0  0  0  0
 21 22  2  0  0  0  0
 21 44  1  0  0  0  0
 22 45  1  0  0  0  0
 23 24  2  0  0  0  0
 24 46  1  0  0  0  0
 25 26  2  0  0  0  0
 25 47  1  0  0  0  0
 26 48  1  0  0  0  0
 27 28  1  0  0  0  0
 28 29  1  0  0  0  0
 28 49  1  0  0  0  0
 29 30  2  0  0  0  0
M  END
$$$$
