
 OpenBabel01122422353D

 45 48  0  0  0  0  0  0  0  0999 V2000
    1.1476    0.5815   -0.1023 O   0  0  0  0  0  0  0  0  0  0  0  0
    2.2602    0.0630   -0.1206 C   0  0  0  0  0  0  0  0  0  0  0  0
    2.7893   -0.7231   -1.1390 N   0  0  0  0  0  0  0  0  0  0  0  0
    2.1218   -1.0012   -2.3610 C   0  0  0  0  0  0  0  0  0  0  0  0
    1.0293   -0.2435   -2.7908 C   0  0  0  0  0  0  0  0  0  0  0  0
    0.3428   -0.5739   -3.9504 C   0  0  0  0  0  0  0  0  0  0  0  0
    0.7567   -1.6560   -4.7172 C   0  0  0  0  0  0  0  0  0  0  0  0
    1.8757   -2.4061   -4.3559 C   0  0  0  0  0  0  0  0  0  0  0  0
    2.3334   -3.5106   -5.1276 N   0  0  0  0  0  0  0  0  0  0  0  0
    1.8126   -3.9130   -6.3569 C   0  0  0  0  0  0  0  0  0  0  0  0
    0.9224   -3.3519   -6.9845 O   0  0  0  0  0  0  0  0  0  0  0  0
    2.4060   -5.1275   -6.9728 C   0  0  0  0  0  0  0  0  0  0  0  0
    3.7888   -5.2917   -6.9383 C   0  0  0  0  0  0  0  0  0  0  0  0
    4.4474   -6.3390   -7.4837 N   0  0  0  0  0  0  0  0  0  0  0  0
    3.6799   -7.2384   -8.1216 C   0  0  0  0  0  0  0  0  0  0  0  0
    4.3998   -8.2594   -8.6544 O   0  0  0  0  0  0  0  0  0  0  0  0
    2.2929   -7.1750   -8.2621 C   0  0  0  0  0  0  0  0  0  0  0  0
    1.5448   -8.1322   -8.9585 C   0  0  0  0  0  0  0  0  0  0  0  0
    0.2030   -8.0868   -9.1236 N   0  0  0  0  0  0  0  0  0  0  0  0
   -0.4310   -7.0381   -8.5697 C   0  0  0  0  0  0  0  0  0  0  0  0
    0.2136   -6.0437   -7.8474 C   0  0  0  0  0  0  0  0  0  0  0  0
    1.6193   -6.0856   -7.6770 C   0  0  0  0  0  0  0  0  0  0  0  0
    2.5608   -2.0707   -3.1687 C   0  0  0  0  0  0  0  0  0  0  0  0
    3.0943    0.2444    1.0942 C   0  0  0  0  0  0  0  0  0  0  0  0
    2.4261    0.3374    2.3276 C   0  0  0  0  0  0  0  0  0  0  0  0
    3.1386    0.5797    3.5002 C   0  0  0  0  0  0  0  0  0  0  0  0
    4.5153    0.7388    3.4334 C   0  0  0  0  0  0  0  0  0  0  0  0
    5.2036    0.9847    4.5562 F   0  0  0  0  0  0  0  0  0  0  0  0
    5.1924    0.6634    2.2171 C   0  0  0  0  0  0  0  0  0  0  0  0
    4.4823    0.4161    1.0370 C   0  0  0  0  0  0  0  0  0  0  0  0
    3.6249   -1.2559   -0.9374 H   0  0  0  0  0  0  0  0  0  0  0  0
    0.6793    0.6257   -2.2434 H   0  0  0  0  0  0  0  0  0  0  0  0
   -0.5234    0.0076   -4.2517 H   0  0  0  0  0  0  0  0  0  0  0  0
    0.1597   -1.8819   -5.5928 H   0  0  0  0  0  0  0  0  0  0  0  0
    3.0872   -4.0475   -4.7193 H   0  0  0  0  0  0  0  0  0  0  0  0
    4.4400   -4.5505   -6.4825 H   0  0  0  0  0  0  0  0  0  0  0  0
    5.3015   -7.9898   -8.4015 H   0  0  0  0  0  0  0  0  0  0  0  0
    2.0255   -8.9900   -9.4238 H   0  0  0  0  0  0  0  0  0  0  0  0
   -1.5063   -7.0075   -8.7252 H   0  0  0  0  0  0  0  0  0  0  0  0
   -0.3902   -5.2373   -7.4415 H   0  0  0  0  0  0  0  0  0  0  0  0
    3.4227   -2.6532   -2.8592 H   0  0  0  0  0  0  0  0  0  0  0  0
    1.3419    0.2379    2.3691 H   0  0  0  0  0  0  0  0  0  0  0  0
    2.6249    0.6602    4.4531 H   0  0  0  0  0  0  0  0  0  0  0  0
    6.2668    0.8205    2.1982 H   0  0  0  0  0  0  0  0  0  0  0  0
    5.0118    0.4117    0.0885 H   0  0  0  0  0  0  0  0  0  0  0  0
  1  2  2  0  0  0  0
  2  3  1  0  0  0  0
  2 24  1  0  0  0  0
  3  4  1  0  0  0  0
  3 31  1  0  0  0  0
  4  5  2  0  0  0  0
  4 23  1  0  0  0  0
  5  6  1  0  0  0  0
  5 32  1  0  0  0  0
  6  7  2  0  0  0  0
  6 33  1  0  0  0  0
  7  8  1  0  0  0  0
  7 34  1  0  0  0  0
  8  9  1  0  0  0  0
  8 23  2  0  0  0  0
  9 10  1  0  0  0  0
  9 35  1  0  0  0  0
 10 11  2  0  0  0  0
 10 12  1  0  0  0  0
 12 13  2  0  0  0  0
 12 22  1  0  0  0  0
 13 14  1  0  0  0  0
 13 36  1  0  0  0  0
 14 15  2  0  0  0  0
 15 16  1  0  0  0  0
 15 17  1  0  0  0  0
 16 37  1  0  0  0  0
 17 18  2  0  0  0  0
 17 22  1  0  0  0  0
 18 19  1  0  0  0  0
 18 38  1  0  0  0  0
 19 20  2  0  0  0  0
 20 21  1  0  0  0  0
 20 39  1  0  0  0  0
 21 22  2  0  0  0  0
 21 40  1  0  0  0  0
 23 41  1  0  0  0  0
 24 25  2  0  0  0  0
 24 30  1  0  0  0  0
 25 26  1  0  0  0  0
 25 42  1  0  0  0  0
 26 27  2  0  0  0  0
 26 43  1  0  0  0  0
 27 28  1  0  0  0  0
 27 29  1  0  0  0  0
 29 30  2  0  0  0  0
 29 44  1  0  0  0  0
 30 45  1  0  0  0  0
M  END
$$$$
