
 OpenBabel01122422423D

 48 50  0  0  1  0  0  0  0  0999 V2000
    1.3538    0.3526   -2.4140 C   0  0  0  0  0  0  0  0  0  0  0  0
    2.7028    0.2186   -1.9632 O   0  0  0  0  0  0  0  0  0  0  0  0
    3.1235    1.2033   -1.1144 C   0  0  0  0  0  0  0  0  0  0  0  0
    2.4332    2.1573   -0.7648 O   0  0  0  0  0  0  0  0  0  0  0  0
    4.5840    0.9727   -0.6463 C   0  0  3  0  0  0  0  0  0  0  0  0
    5.1969   -0.2364   -1.2019 N   0  0  0  0  0  0  0  0  0  0  0  0
    4.9817   -1.4612   -0.6084 C   0  0  0  0  0  0  0  0  0  0  0  0
    4.4711   -1.5922    0.4973 O   0  0  0  0  0  0  0  0  0  0  0  0
    5.4234   -2.6651   -1.3637 C   0  0  0  0  0  0  0  0  0  0  0  0
    5.8726   -3.7665   -0.6338 C   0  0  0  0  0  0  0  0  0  0  0  0
    6.2779   -4.8860   -1.3333 C   0  0  0  0  0  0  0  0  0  0  0  0
    6.2735   -4.9654   -2.6796 N   0  0  0  0  0  0  0  0  0  0  0  0
    5.8205   -3.8933   -3.3635 C   0  0  0  0  0  0  0  0  0  0  0  0
    5.7632   -3.9521   -4.7436 O   0  0  0  0  0  0  0  0  0  0  0  0
    6.6891   -4.9093   -5.2718 C   0  0  0  0  0  0  0  0  0  0  0  0
    6.5293   -5.0266   -6.7721 C   0  0  0  0  0  0  0  0  0  0  0  0
    7.5682   -4.6563   -7.6388 C   0  0  0  0  0  0  0  0  0  0  0  0
    7.4369   -4.8281   -9.0193 C   0  0  0  0  0  0  0  0  0  0  0  0
    6.2687   -5.3734   -9.5480 C   0  0  0  0  0  0  0  0  0  0  0  0
    5.2291   -5.7449   -8.6976 C   0  0  0  0  0  0  0  0  0  0  0  0
    5.3573   -5.5715   -7.3175 C   0  0  0  0  0  0  0  0  0  0  0  0
    5.3669   -2.7337   -2.7571 C   0  0  0  0  0  0  0  0  0  0  0  0
    5.4436    2.1964   -0.9171 C   0  0  0  0  0  0  0  0  0  0  0  0
    6.0582    2.8811    0.1456 C   0  0  0  0  0  0  0  0  0  0  0  0
    6.7848    4.0509   -0.0920 C   0  0  0  0  0  0  0  0  0  0  0  0
    6.9108    4.5338   -1.3903 C   0  0  0  0  0  0  0  0  0  0  0  0
    7.5955    5.6638   -1.6087 F   0  0  0  0  0  0  0  0  0  0  0  0
    6.3359    3.8627   -2.4584 C   0  0  0  0  0  0  0  0  0  0  0  0
    5.6086    2.7011   -2.2140 C   0  0  0  0  0  0  0  0  0  0  0  0
    5.0558    2.0557   -3.2512 F   0  0  0  0  0  0  0  0  0  0  0  0
    1.2198   -0.3128   -3.2713 H   0  0  0  0  0  0  0  0  0  0  0  0
    1.1362    1.3748   -2.7391 H   0  0  0  0  0  0  0  0  0  0  0  0
    0.6658    0.0431   -1.6218 H   0  0  0  0  0  0  0  0  0  0  0  0
    4.5062    0.8271    0.4388 H   0  0  0  0  0  0  0  0  0  0  0  0
    5.5318   -0.1837   -2.1536 H   0  0  0  0  0  0  0  0  0  0  0  0
    5.9074   -3.7535    0.4513 H   0  0  0  0  0  0  0  0  0  0  0  0
    6.6285   -5.7765   -0.8185 H   0  0  0  0  0  0  0  0  0  0  0  0
    6.5303   -5.9111   -4.8521 H   0  0  0  0  0  0  0  0  0  0  0  0
    7.7099   -4.5837   -5.0330 H   0  0  0  0  0  0  0  0  0  0  0  0
    8.4942   -4.2435   -7.2454 H   0  0  0  0  0  0  0  0  0  0  0  0
    8.2501   -4.5436   -9.6823 H   0  0  0  0  0  0  0  0  0  0  0  0
    6.1698   -5.5121  -10.6215 H   0  0  0  0  0  0  0  0  0  0  0  0
    4.3203   -6.1769   -9.1085 H   0  0  0  0  0  0  0  0  0  0  0  0
    4.5434   -5.8772   -6.6634 H   0  0  0  0  0  0  0  0  0  0  0  0
    4.9704   -1.9279   -3.3613 H   0  0  0  0  0  0  0  0  0  0  0  0
    5.9581    2.5195    1.1674 H   0  0  0  0  0  0  0  0  0  0  0  0
    7.2417    4.5953    0.7297 H   0  0  0  0  0  0  0  0  0  0  0  0
    6.4455    4.2465   -3.4676 H   0  0  0  0  0  0  0  0  0  0  0  0
  1  2  1  0  0  0  0
  1 31  1  0  0  0  0
  1 32  1  0  0  0  0
  1 33  1  0  0  0  0
  2  3  1  0  0  0  0
  3  4  2  0  0  0  0
  3  5  1  0  0  0  0
  5  6  1  0  0  0  0
  5 23  1  0  0  0  0
  5 34  1  0  0  0  0
  6  7  1  0  0  0  0
  6 35  1  0  0  0  0
  7  8  2  0  0  0  0
  7  9  1  0  0  0  0
  9 10  2  0  0  0  0
  9 22  1  0  0  0  0
 10 11  1  0  0  0  0
 10 36  1  0  0  0  0
 11 12  2  0  0  0  0
 11 37  1  0  0  0  0
 12 13  1  0  0  0  0
 13 14  1  0  0  0  0
 13 22  2  0  0  0  0
 14 15  1  0  0  0  0
 15 16  1  0  0  0  0
 15 38  1  0  0  0  0
 15 39  1  0  0  0  0
 16 17  2  0  0  0  0
 16 21  1  0  0  0  0
 17 18  1  0  0  0  0
 17 40  1  0  0  0  0
 18 19  2  0  0  0  0
 18 41  1  0  0  0  0
 19 20  1  0  0  0  0
 19 42  1  0  0  0  0
 20 21  2  0  0  0  0
 20 43  1  0  0  0  0
 21 44  1  0  0  0  0
 22 45  1  0  0  0  0
 23 24  2  0  0  0  0
 23 29  1  0  0  0  0
 24 25  1  0  0  0  0
 24 46  1  0  0  0  0
 25 26  2  0  0  0  0
 25 47  1  0  0  0  0
 26 27  1  0  0  0  0
 26 28  1  0  0  0  0
 28 29  2  0  0  0  0
 28 48  1  0  0  0  0
 29 30  1  0  0  0  0
M  END
$$$$
