
 OpenBabel01122422423D

 45 48  0  0  0  0  0  0  0  0999 V2000
    2.8487   -0.3496    1.0624 O   0  0  0  0  0  0  0  0  0  0  0  0
    2.2278   -0.2479    0.0092 C   0  0  0  0  0  0  0  0  0  0  0  0
    0.8539   -0.1716   -0.1388 N   0  0  0  0  0  0  0  0  0  0  0  0
   -0.0371   -0.1784    0.9235 C   0  0  0  0  0  0  0  0  0  0  0  0
    0.2525    0.0651    2.2423 C   0  0  0  0  0  0  0  0  0  0  0  0
   -0.9097   -0.0905    2.9219 N   0  0  0  0  0  0  0  0  0  0  0  0
   -1.9575   -0.3935    2.1429 N   0  0  0  0  0  0  0  0  0  0  0  0
   -1.4415   -0.4651    0.8992 C   0  0  0  0  0  0  0  0  0  0  0  0
   -2.2612   -0.8694   -0.2470 C   0  0  0  0  0  0  0  0  0  0  0  0
   -3.5913   -1.2503   -0.0749 C   0  0  0  0  0  0  0  0  0  0  0  0
   -4.3739   -1.6950   -1.0927 N   0  0  0  0  0  0  0  0  0  0  0  0
   -3.7705   -1.7403   -2.2988 C   0  0  0  0  0  0  0  0  0  0  0  0
   -2.4531   -1.3514   -2.4849 C   0  0  0  0  0  0  0  0  0  0  0  0
   -1.6640   -0.9091   -1.4742 N   0  0  0  0  0  0  0  0  0  0  0  0
    2.9956   -0.2610   -1.2627 C   0  0  0  0  0  0  0  0  0  0  0  0
    2.5972    0.5221   -2.3489 C   0  0  0  0  0  0  0  0  0  0  0  0
    3.3572    0.5335   -3.5252 C   0  0  0  0  0  0  0  0  0  0  0  0
    2.9382    1.3917   -4.6897 C   0  0  0  0  0  0  0  0  0  0  0  0
    2.0627    0.6366   -5.5255 O   0  0  0  0  0  0  0  0  0  0  0  0
    1.6539    1.2539   -6.6763 C   0  0  0  0  0  0  0  0  0  0  0  0
    1.9445    2.5658   -7.0430 C   0  0  0  0  0  0  0  0  0  0  0  0
    1.4813    3.0637   -8.2538 C   0  0  0  0  0  0  0  0  0  0  0  0
    1.7688    4.3271   -8.5993 F   0  0  0  0  0  0  0  0  0  0  0  0
    0.7371    2.2736   -9.1226 C   0  0  0  0  0  0  0  0  0  0  0  0
    0.4376    0.9620   -8.7594 C   0  0  0  0  0  0  0  0  0  0  0  0
    0.8869    0.4585   -7.5360 C   0  0  0  0  0  0  0  0  0  0  0  0
    4.5057   -0.2660   -3.6070 C   0  0  0  0  0  0  0  0  0  0  0  0
    4.9089   -1.0426   -2.5204 C   0  0  0  0  0  0  0  0  0  0  0  0
    4.1594   -1.0373   -1.3446 C   0  0  0  0  0  0  0  0  0  0  0  0
    0.4280   -0.3023   -1.0536 H   0  0  0  0  0  0  0  0  0  0  0  0
    1.1751    0.3137    2.7459 H   0  0  0  0  0  0  0  0  0  0  0  0
   -1.0568   -0.0136    3.9233 H   0  0  0  0  0  0  0  0  0  0  0  0
   -4.0708   -1.2196    0.8990 H   0  0  0  0  0  0  0  0  0  0  0  0
   -4.3803   -2.0996   -3.1201 H   0  0  0  0  0  0  0  0  0  0  0  0
   -1.9919   -1.3905   -3.4662 H   0  0  0  0  0  0  0  0  0  0  0  0
    1.7115    1.1497   -2.2772 H   0  0  0  0  0  0  0  0  0  0  0  0
    3.8338    1.7041   -5.2422 H   0  0  0  0  0  0  0  0  0  0  0  0
    2.4244    2.2850   -4.3121 H   0  0  0  0  0  0  0  0  0  0  0  0
    2.5316    3.2365   -6.4216 H   0  0  0  0  0  0  0  0  0  0  0  0
    0.3970    2.6832  -10.0662 H   0  0  0  0  0  0  0  0  0  0  0  0
   -0.1346    0.3275   -9.4329 H   0  0  0  0  0  0  0  0  0  0  0  0
    0.6504   -0.5651   -7.2558 H   0  0  0  0  0  0  0  0  0  0  0  0
    5.0979   -0.2814   -4.5203 H   0  0  0  0  0  0  0  0  0  0  0  0
    5.8084   -1.6495   -2.5900 H   0  0  0  0  0  0  0  0  0  0  0  0
    4.4762   -1.6433   -0.4981 H   0  0  0  0  0  0  0  0  0  0  0  0
  1  2  2  0  0  0  0
  2  3  1  0  0  0  0
  2 15  1  0  0  0  0
  3  4  1  0  0  0  0
  3 30  1  0  0  0  0
  4  5  2  0  0  0  0
  4  8  1  0  0  0  0
  5  6  1  0  0  0  0
  5 31  1  0  0  0  0
  6  7  1  0  0  0  0
  6 32  1  0  0  0  0
  7  8  2  0  0  0  0
  8  9  1  0  0  0  0
  9 10  2  0  0  0  0
  9 14  1  0  0  0  0
 10 11  1  0  0  0  0
 10 33  1  0  0  0  0
 11 12  2  0  0  0  0
 12 13  1  0  0  0  0
 12 34  1  0  0  0  0
 13 14  2  0  0  0  0
 13 35  1  0  0  0  0
 15 16  2  0  0  0  0
 15 29  1  0  0  0  0
 16 17  1  0  0  0  0
 16 36  1  0  0  0  0
 17 18  1  0  0  0  0
 17 27  2  0  0  0  0
 18 19  1  0  0  0  0
 18 37  1  0  0  0  0
 18 38  1  0  0  0  0
 19 20  1  0  0  0  0
 20 21  2  0  0  0  0
 20 26  1  0  0  0  0
 21 22  1  0  0  0  0
 21 39  1  0  0  0  0
 22 23  1  0  0  0  0
 22 24  2  0  0  0  0
 24 25  1  0  0  0  0
 24 40  1  0  0  0  0
 25 26  2  0  0  0  0
 25 41  1  0  0  0  0
 26 42  1  0  0  0  0
 27 28  1  0  0  0  0
 27 43  1  0  0  0  0
 28 29  2  0  0  0  0
 28 44  1  0  0  0  0
 29 45  1  0  0  0  0
M  END
$$$$
