
 OpenBabel01122422423D

 49 52  0  0  1  0  0  0  0  0999 V2000
    4.0202   -2.4556   -0.6142 O   0  0  0  0  0  0  0  0  0  0  0  0
    3.6830   -1.2872   -0.4442 C   0  0  0  0  0  0  0  0  0  0  0  0
    2.8578   -0.8849    0.5764 N   0  0  0  0  0  0  0  0  0  0  0  0
    2.2469   -1.8218    1.4985 C   0  0  0  0  0  0  0  0  0  0  0  0
    3.2380   -2.6437    2.3677 C   0  0  3  0  0  0  0  0  0  0  0  0
    4.1333   -1.8149    3.1760 N   0  0  0  0  0  0  0  0  0  0  0  0
    3.6898   -0.9355    4.1379 C   0  0  0  0  0  0  0  0  0  0  0  0
    2.5087   -0.7322    4.3945 O   0  0  0  0  0  0  0  0  0  0  0  0
    4.7328   -0.2080    4.9059 C   0  0  0  0  0  0  0  0  0  0  0  0
    5.9601    0.1409    4.3346 C   0  0  0  0  0  0  0  0  0  0  0  0
    6.8755    0.8971    5.0673 C   0  0  0  0  0  0  0  0  0  0  0  0
    6.5788    1.3103    6.3774 C   0  0  0  0  0  0  0  0  0  0  0  0
    7.4501    2.0869    7.1425 C   0  0  0  0  0  0  0  0  0  0  0  0
    7.1964    2.5055    8.4038 N   0  0  0  0  0  0  0  0  0  0  0  0
    6.0144    2.1351    8.9367 C   0  0  0  0  0  0  0  0  0  0  0  0
    5.0711    1.3713    8.2685 C   0  0  0  0  0  0  0  0  0  0  0  0
    5.3482    0.9512    6.9615 C   0  0  0  0  0  0  0  0  0  0  0  0
    4.4312    0.1944    6.2157 C   0  0  0  0  0  0  0  0  0  0  0  0
    2.5441   -3.6912    3.2251 C   0  0  0  0  0  0  0  0  0  0  0  0
    1.2642   -3.4799    3.7670 C   0  0  0  0  0  0  0  0  0  0  0  0
    0.6498   -4.4463    4.5606 C   0  0  0  0  0  0  0  0  0  0  0  0
    1.3084   -5.6394    4.8381 C   0  0  0  0  0  0  0  0  0  0  0  0
    2.5842   -5.8612    4.3244 C   0  0  0  0  0  0  0  0  0  0  0  0
    3.1916   -4.8926    3.5288 C   0  0  0  0  0  0  0  0  0  0  0  0
    4.4257   -5.1276    3.0582 F   0  0  0  0  0  0  0  0  0  0  0  0
    4.1266   -0.2080   -1.3190 C   0  0  0  0  0  0  0  0  0  0  0  0
    4.9147   -0.3939   -2.4434 C   0  0  0  0  0  0  0  0  0  0  0  0
    5.1449    0.8212   -3.0276 N   0  0  0  0  0  0  0  0  0  0  0  0
    4.5309    1.7982   -2.2963 C   0  0  0  0  0  0  0  0  0  0  0  0
    3.8967    1.1945   -1.2314 C   0  0  0  0  0  0  0  0  0  0  0  0
    2.4491    0.0344    0.5223 H   0  0  0  0  0  0  0  0  0  0  0  0
    1.6137   -2.4964    0.9087 H   0  0  0  0  0  0  0  0  0  0  0  0
    1.5837   -1.2107    2.1177 H   0  0  0  0  0  0  0  0  0  0  0  0
    3.9042   -3.1845    1.6856 H   0  0  0  0  0  0  0  0  0  0  0  0
    5.1133   -2.0490    3.1255 H   0  0  0  0  0  0  0  0  0  0  0  0
    6.2012   -0.1291    3.3089 H   0  0  0  0  0  0  0  0  0  0  0  0
    7.8223    1.1772    4.6047 H   0  0  0  0  0  0  0  0  0  0  0  0
    8.4080    2.4112    6.7468 H   0  0  0  0  0  0  0  0  0  0  0  0
    5.8347    2.4831    9.9503 H   0  0  0  0  0  0  0  0  0  0  0  0
    4.1379    1.1161    8.7604 H   0  0  0  0  0  0  0  0  0  0  0  0
    3.4682   -0.0772    6.6451 H   0  0  0  0  0  0  0  0  0  0  0  0
    0.7364   -2.5438    3.6034 H   0  0  0  0  0  0  0  0  0  0  0  0
   -0.3383   -4.2518    4.9690 H   0  0  0  0  0  0  0  0  0  0  0  0
    0.8302   -6.3879    5.4632 H   0  0  0  0  0  0  0  0  0  0  0  0
    3.1147   -6.7832    4.5438 H   0  0  0  0  0  0  0  0  0  0  0  0
    5.3251   -1.3020   -2.8666 H   0  0  0  0  0  0  0  0  0  0  0  0
    5.6903    0.9695   -3.8669 H   0  0  0  0  0  0  0  0  0  0  0  0
    4.5993    2.8370   -2.5909 H   0  0  0  0  0  0  0  0  0  0  0  0
    3.3364    1.7303   -0.4731 H   0  0  0  0  0  0  0  0  0  0  0  0
  1  2  2  0  0  0  0
  2  3  1  0  0  0  0
  2 26  1  0  0  0  0
  3  4  1  0  0  0  0
  3 31  1  0  0  0  0
  4  5  1  0  0  0  0
  4 32  1  0  0  0  0
  4 33  1  0  0  0  0
  5  6  1  0  0  0  0
  5 19  1  0  0  0  0
  5 34  1  0  0  0  0
  6  7  1  0  0  0  0
  6 35  1  0  0  0  0
  7  8  2  0  0  0  0
  7  9  1  0  0  0  0
  9 10  2  0  0  0  0
  9 18  1  0  0  0  0
 10 11  1  0  0  0  0
 10 36  1  0  0  0  0
 11 12  2  0  0  0  0
 11 37  1  0  0  0  0
 12 13  1  0  0  0  0
 12 17  1  0  0  0  0
 13 14  2  0  0  0  0
 13 38  1  0  0  0  0
 14 15  1  0  0  0  0
 15 16  2  0  0  0  0
 15 39  1  0  0  0  0
 16 17  1  0  0  0  0
 16 40  1  0  0  0  0
 17 18  2  0  0  0  0
 18 41  1  0  0  0  0
 19 20  2  0  0  0  0
 19 24  1  0  0  0  0
 20 21  1  0  0  0  0
 20 42  1  0  0  0  0
 21 22  2  0  0  0  0
 21 43  1  0  0  0  0
 22 23  1  0  0  0  0
 22 44  1  0  0  0  0
 23 24  2  0  0  0  0
 23 45  1  0  0  0  0
 24 25  1  0  0  0  0
 26 27  2  0  0  0  0
 26 30  1  0  0  0  0
 27 28  1  0  0  0  0
 27 46  1  0  0  0  0
 28 29  1  0  0  0  0
 28 47  1  0  0  0  0
 29 30  2  0  0  0  0
 29 48  1  0  0  0  0
 30 49  1  0  0  0  0
M  END
$$$$
