
 OpenBabel01122422423D

 61 64  0  0  1  0  0  0  0  0999 V2000
    0.5706    1.7283   -0.6897 C   0  0  0  0  0  0  0  0  0  0  0  0
    2.0946    1.8507   -0.7259 C   0  0  0  0  0  0  0  0  0  0  0  0
    2.8046    1.1036    0.3399 N   0  0  0  0  0  0  0  0  0  0  0  0
    2.4768   -0.3367    0.2727 C   0  0  0  0  0  0  0  0  0  0  0  0
    3.0529   -1.1876    1.4067 C   0  0  0  0  0  0  0  0  0  0  0  0
    4.2783    1.3120    0.2059 C   0  0  0  0  0  0  0  0  0  0  0  0
    4.8270    2.7569    0.4541 C   0  0  3  0  0  0  0  0  0  0  0  0
    4.3970    3.2944    1.7388 N   0  0  0  0  0  0  0  0  0  0  0  0
    3.9730    4.5925    1.8728 C   0  0  0  0  0  0  0  0  0  0  0  0
    3.8850    5.3753    0.9310 O   0  0  0  0  0  0  0  0  0  0  0  0
    3.5274    5.0243    3.2287 C   0  0  0  0  0  0  0  0  0  0  0  0
    3.4020    6.3952    3.4640 C   0  0  0  0  0  0  0  0  0  0  0  0
    2.5576    6.8562    4.4743 C   0  0  0  0  0  0  0  0  0  0  0  0
    1.7425    5.9268    5.1384 C   0  0  0  0  0  0  0  0  0  0  0  0
    0.3336    6.2842    5.3761 N   0  0  0  0  0  0  0  0  0  0  0  0
   -0.5255    5.2013    5.3865 C   0  0  0  0  0  0  0  0  0  0  0  0
   -1.0735    4.7000    4.3193 N   0  0  0  0  0  0  0  0  0  0  0  0
   -0.7179    5.3445    3.1112 C   0  0  0  0  0  0  0  0  0  0  0  0
   -0.5725    4.6246    1.9292 C   0  0  0  0  0  0  0  0  0  0  0  0
   -0.0352    5.2459    0.7944 C   0  0  0  0  0  0  0  0  0  0  0  0
    0.2993    6.6044    0.8149 C   0  0  0  0  0  0  0  0  0  0  0  0
    0.1245    7.3490    1.9793 C   0  0  0  0  0  0  0  0  0  0  0  0
   -0.3432    6.6945    3.1182 C   0  0  0  0  0  0  0  0  0  0  0  0
   -0.1254    7.2505    4.4749 C   0  0  0  0  0  0  0  0  0  0  0  0
   -0.2860    8.4419    4.7265 O   0  0  0  0  0  0  0  0  0  0  0  0
    2.1371    4.5794    5.1534 C   0  0  0  0  0  0  0  0  0  0  0  0
    3.0104    4.1202    4.1642 C   0  0  0  0  0  0  0  0  0  0  0  0
    6.3502    2.7772    0.3919 C   0  0  0  0  0  0  0  0  0  0  0  0
    7.0038    3.5491   -0.5805 C   0  0  0  0  0  0  0  0  0  0  0  0
    8.3983    3.5715   -0.6501 C   0  0  0  0  0  0  0  0  0  0  0  0
    9.1558    2.8333    0.2577 C   0  0  0  0  0  0  0  0  0  0  0  0
    8.5228    2.0756    1.2398 C   0  0  0  0  0  0  0  0  0  0  0  0
    7.1286    2.0496    1.3069 C   0  0  0  0  0  0  0  0  0  0  0  0
    0.1214    2.4454   -1.3854 H   0  0  0  0  0  0  0  0  0  0  0  0
    0.1795    1.9367    0.3103 H   0  0  0  0  0  0  0  0  0  0  0  0
    0.2293    0.7352   -0.9977 H   0  0  0  0  0  0  0  0  0  0  0  0
    2.3177    2.9185   -0.6299 H   0  0  0  0  0  0  0  0  0  0  0  0
    2.4451    1.5346   -1.7172 H   0  0  0  0  0  0  0  0  0  0  0  0
    2.7891   -0.7534   -0.6936 H   0  0  0  0  0  0  0  0  0  0  0  0
    1.3916   -0.4707    0.3345 H   0  0  0  0  0  0  0  0  0  0  0  0
    3.6488   -0.6199    2.1264 H   0  0  0  0  0  0  0  0  0  0  0  0
    3.6819   -1.9844    0.9959 H   0  0  0  0  0  0  0  0  0  0  0  0
    2.2439   -1.6594    1.9748 H   0  0  0  0  0  0  0  0  0  0  0  0
    4.6125    0.9703   -0.7831 H   0  0  0  0  0  0  0  0  0  0  0  0
    4.7784    0.6632    0.9310 H   0  0  0  0  0  0  0  0  0  0  0  0
    4.4422    3.4062   -0.3415 H   0  0  0  0  0  0  0  0  0  0  0  0
    4.5825    2.7376    2.5577 H   0  0  0  0  0  0  0  0  0  0  0  0
    3.8234    7.1146    2.7600 H   0  0  0  0  0  0  0  0  0  0  0  0
    2.3638    7.9242    4.5336 H   0  0  0  0  0  0  0  0  0  0  0  0
   -0.6673    4.7472    6.3789 H   0  0  0  0  0  0  0  0  0  0  0  0
   -0.7962    3.5619    1.9135 H   0  0  0  0  0  0  0  0  0  0  0  0
    0.1686    4.6603   -0.0988 H   0  0  0  0  0  0  0  0  0  0  0  0
    0.7622    7.0587   -0.0591 H   0  0  0  0  0  0  0  0  0  0  0  0
    0.4590    8.3817    2.0290 H   0  0  0  0  0  0  0  0  0  0  0  0
    1.6147    3.8377    5.7548 H   0  0  0  0  0  0  0  0  0  0  0  0
    3.1242    3.0468    4.0467 H   0  0  0  0  0  0  0  0  0  0  0  0
    6.4288    4.1476   -1.2843 H   0  0  0  0  0  0  0  0  0  0  0  0
    8.8923    4.1732   -1.4099 H   0  0  0  0  0  0  0  0  0  0  0  0
   10.2407    2.8527    0.1994 H   0  0  0  0  0  0  0  0  0  0  0  0
    9.1153    1.5040    1.9480 H   0  0  0  0  0  0  0  0  0  0  0  0
    6.6604    1.4546    2.0867 H   0  0  0  0  0  0  0  0  0  0  0  0
  1  2  1  0  0  0  0
  1 34  1  0  0  0  0
  1 35  1  0  0  0  0
  1 36  1  0  0  0  0
  2  3  1  0  0  0  0
  2 37  1  0  0  0  0
  2 38  1  0  0  0  0
  3  4  1  0  0  0  0
  3  6  1  0  0  0  0
  4  5  1  0  0  0  0
  4 39  1  0  0  0  0
  4 40  1  0  0  0  0
  5 41  1  0  0  0  0
  5 42  1  0  0  0  0
  5 43  1  0  0  0  0
  6  7  1  0  0  0  0
  6 44  1  0  0  0  0
  6 45  1  0  0  0  0
  7  8  1  0  0  0  0
  7 28  1  0  0  0  0
  7 46  1  0  0  0  0
  8  9  1  0  0  0  0
  8 47  1  0  0  0  0
  9 10  2  0  0  0  0
  9 11  1  0  0  0  0
 11 12  2  0  0  0  0
 11 27  1  0  0  0  0
 12 13  1  0  0  0  0
 12 48  1  0  0  0  0
 13 14  2  0  0  0  0
 13 49  1  0  0  0  0
 14 15  1  0  0  0  0
 14 26  1  0  0  0  0
 15 16  1  0  0  0  0
 15 24  1  0  0  0  0
 16 17  2  0  0  0  0
 16 50  1  0  0  0  0
 17 18  1  0  0  0  0
 18 19  2  0  0  0  0
 18 23  1  0  0  0  0
 19 20  1  0  0  0  0
 19 51  1  0  0  0  0
 20 21  2  0  0  0  0
 20 52  1  0  0  0  0
 21 22  1  0  0  0  0
 21 53  1  0  0  0  0
 22 23  2  0  0  0  0
 22 54  1  0  0  0  0
 23 24  1  0  0  0  0
 24 25  2  0  0  0  0
 26 27  2  0  0  0  0
 26 55  1  0  0  0  0
 27 56  1  0  0  0  0
 28 29  2  0  0  0  0
 28 33  1  0  0  0  0
 29 30  1  0  0  0  0
 29 57  1  0  0  0  0
 30 31  2  0  0  0  0
 30 58  1  0  0  0  0
 31 32  1  0  0  0  0
 31 59  1  0  0  0  0
 32 33  2  0  0  0  0
 32 60  1  0  0  0  0
 33 61  1  0  0  0  0
M  END
$$$$
