
 OpenBabel01122422423D

 41 44  0  0  0  0  0  0  0  0999 V2000
    0.9180    0.2279   -0.0460 O   0  0  0  0  0  0  0  0  0  0  0  0
    2.1363    0.1172    0.0191 C   0  0  0  0  0  0  0  0  0  0  0  0
    2.8014   -0.9769    0.5489 N   0  0  0  0  0  0  0  0  0  0  0  0
    2.1657   -2.1552    0.9993 C   0  0  0  0  0  0  0  0  0  0  0  0
    0.8651   -2.5029    0.6251 C   0  0  0  0  0  0  0  0  0  0  0  0
    0.2544   -3.6431    1.1423 C   0  0  0  0  0  0  0  0  0  0  0  0
   -1.0152   -3.8755    0.7823 F   0  0  0  0  0  0  0  0  0  0  0  0
    0.9174   -4.4552    2.0568 C   0  0  0  0  0  0  0  0  0  0  0  0
    0.2722   -5.5784    2.6156 N   0  0  0  0  0  0  0  0  0  0  0  0
   -0.7459   -6.3189    2.0552 C   0  0  0  0  0  0  0  0  0  0  0  0
   -1.0305   -7.3168    2.9549 C   0  0  0  0  0  0  0  0  0  0  0  0
   -0.2477   -7.2029    4.0679 N   0  0  0  0  0  0  0  0  0  0  0  0
    0.5185   -6.1589    3.8411 C   0  0  0  0  0  0  0  0  0  0  0  0
    2.2282   -4.1243    2.4047 C   0  0  0  0  0  0  0  0  0  0  0  0
    2.9428   -4.8966    3.2346 F   0  0  0  0  0  0  0  0  0  0  0  0
    2.8628   -3.0029    1.8602 C   0  0  0  0  0  0  0  0  0  0  0  0
    2.9784    1.2045   -0.4445 C   0  0  0  0  0  0  0  0  0  0  0  0
    2.4749    2.4240   -0.8524 C   0  0  0  0  0  0  0  0  0  0  0  0
    3.5200    3.1903   -1.3021 N   0  0  0  0  0  0  0  0  0  0  0  0
    3.4512    4.4862   -1.8765 C   0  0  0  0  0  0  0  0  0  0  0  0
    4.6164    5.0863   -2.3725 C   0  0  0  0  0  0  0  0  0  0  0  0
    4.5416    6.3497   -2.9549 C   0  0  0  0  0  0  0  0  0  0  0  0
    5.6444    6.9573   -3.4752 O   0  0  0  0  0  0  0  0  0  0  0  0
    3.3306    7.0310   -3.0356 C   0  0  0  0  0  0  0  0  0  0  0  0
    2.1716    6.4380   -2.5426 C   0  0  0  0  0  0  0  0  0  0  0  0
    2.2255    5.1668   -1.9687 C   0  0  0  0  0  0  0  0  0  0  0  0
    4.7011    2.5298   -1.1510 N   0  0  0  0  0  0  0  0  0  0  0  0
    4.3633    1.3427   -0.6400 C   0  0  0  0  0  0  0  0  0  0  0  0
    3.7823   -0.8676    0.7697 H   0  0  0  0  0  0  0  0  0  0  0  0
    0.2803   -1.9113   -0.0715 H   0  0  0  0  0  0  0  0  0  0  0  0
   -1.1443   -6.1194    1.0709 H   0  0  0  0  0  0  0  0  0  0  0  0
   -1.7530   -8.1162    2.8500 H   0  0  0  0  0  0  0  0  0  0  0  0
    1.2328   -5.7561    4.5471 H   0  0  0  0  0  0  0  0  0  0  0  0
    3.8900   -2.8010    2.1512 H   0  0  0  0  0  0  0  0  0  0  0  0
    1.4496    2.7606   -0.8817 H   0  0  0  0  0  0  0  0  0  0  0  0
    5.5703    4.5692   -2.3118 H   0  0  0  0  0  0  0  0  0  0  0  0
    6.3851    6.3308   -3.4407 H   0  0  0  0  0  0  0  0  0  0  0  0
    3.2924    8.0177   -3.4868 H   0  0  0  0  0  0  0  0  0  0  0  0
    1.2226    6.9655   -2.6089 H   0  0  0  0  0  0  0  0  0  0  0  0
    1.2946    4.7436   -1.6037 H   0  0  0  0  0  0  0  0  0  0  0  0
    5.1534    0.6273   -0.4550 H   0  0  0  0  0  0  0  0  0  0  0  0
  1  2  2  0  0  0  0
  2  3  1  0  0  0  0
  2 17  1  0  0  0  0
  3  4  1  0  0  0  0
  3 29  1  0  0  0  0
  4  5  2  0  0  0  0
  4 16  1  0  0  0  0
  5  6  1  0  0  0  0
  5 30  1  0  0  0  0
  6  7  1  0  0  0  0
  6  8  2  0  0  0  0
  8  9  1  0  0  0  0
  8 14  1  0  0  0  0
  9 10  1  0  0  0  0
  9 13  1  0  0  0  0
 10 11  2  0  0  0  0
 10 31  1  0  0  0  0
 11 12  1  0  0  0  0
 11 32  1  0  0  0  0
 12 13  2  0  0  0  0
 13 33  1  0  0  0  0
 14 15  1  0  0  0  0
 14 16  2  0  0  0  0
 16 34  1  0  0  0  0
 17 18  2  0  0  0  0
 17 28  1  0  0  0  0
 18 19  1  0  0  0  0
 18 35  1  0  0  0  0
 19 20  1  0  0  0  0
 19 27  1  0  0  0  0
 20 21  2  0  0  0  0
 20 26  1  0  0  0  0
 21 22  1  0  0  0  0
 21 36  1  0  0  0  0
 22 23  1  0  0  0  0
 22 24  2  0  0  0  0
 23 37  1  0  0  0  0
 24 25  1  0  0  0  0
 24 38  1  0  0  0  0
 25 26  2  0  0  0  0
 25 39  1  0  0  0  0
 26 40  1  0  0  0  0
 27 28  2  0  0  0  0
 28 41  1  0  0  0  0
M  END
$$$$
