
 OpenBabel01122422423D

 56 59  0  0  1  0  0  0  0  0999 V2000
    3.5830   -0.6959    1.6080 C   0  0  0  0  0  0  0  0  0  0  0  0
    2.8717   -1.4556    0.6361 O   0  0  0  0  0  0  0  0  0  0  0  0
    3.3102   -1.3971   -0.6600 C   0  0  0  0  0  0  0  0  0  0  0  0
    4.1718   -0.4039   -1.1364 C   0  0  0  0  0  0  0  0  0  0  0  0
    4.6841   -0.4441   -2.4350 C   0  0  0  0  0  0  0  0  0  0  0  0
    4.3356   -1.4644   -3.3213 C   0  0  0  0  0  0  0  0  0  0  0  0
    5.0716   -1.5963   -4.6398 C   0  0  0  0  0  0  0  0  0  0  0  0
    4.4462   -1.0353   -5.9603 C   0  0  3  0  0  0  0  0  0  0  0  0
    4.3256    0.4372   -6.1008 N   0  0  0  0  0  0  0  0  0  0  0  0
    5.3794    1.3253   -5.9896 C   0  0  0  0  0  0  0  0  0  0  0  0
    6.5264    0.9691   -5.7272 O   0  0  0  0  0  0  0  0  0  0  0  0
    5.1387    2.7916   -5.9849 C   0  0  0  0  0  0  0  0  0  0  0  0
    4.1911    3.4728   -6.6473 N   0  0  0  0  0  0  0  0  0  0  0  0
    3.7039    4.6919   -6.0577 N   0  0  0  0  0  0  0  0  0  0  0  0
    3.8057    4.8566   -4.7042 C   0  0  0  0  0  0  0  0  0  0  0  0
    2.9348    5.5740   -3.8915 C   0  0  0  0  0  0  0  0  0  0  0  0
    2.2049    4.8471   -2.9514 C   0  0  0  0  0  0  0  0  0  0  0  0
    2.4647    3.4861   -2.8207 C   0  0  0  0  0  0  0  0  0  0  0  0
    3.6442    2.9918   -3.3643 C   0  0  0  0  0  0  0  0  0  0  0  0
    4.4802    3.8314   -4.1205 C   0  0  0  0  0  0  0  0  0  0  0  0
    5.5939    3.4070   -4.8496 C   0  0  0  0  0  0  0  0  0  0  0  0
    6.6300    4.4533   -5.0890 N   0  0  0  0  0  0  0  0  0  0  0  0
    5.1715   -1.6604   -7.1616 C   0  0  0  0  0  0  0  0  0  0  0  0
    4.4645   -2.4244   -8.1015 C   0  0  0  0  0  0  0  0  0  0  0  0
    5.1251   -3.0257   -9.1801 C   0  0  0  0  0  0  0  0  0  0  0  0
    6.5016   -2.8721   -9.3410 C   0  0  0  0  0  0  0  0  0  0  0  0
    7.2234   -2.1343   -8.4127 C   0  0  0  0  0  0  0  0  0  0  0  0
    6.5654   -1.5472   -7.3304 C   0  0  0  0  0  0  0  0  0  0  0  0
    3.4207   -2.4328   -2.8662 C   0  0  0  0  0  0  0  0  0  0  0  0
    2.8988   -2.3911   -1.5680 C   0  0  0  0  0  0  0  0  0  0  0  0
    2.0653   -3.4589   -1.2706 O   0  0  0  0  0  0  0  0  0  0  0  0
    1.0579   -3.2391   -0.2855 C   0  0  0  0  0  0  0  0  0  0  0  0
    3.2343   -1.0047    2.5988 H   0  0  0  0  0  0  0  0  0  0  0  0
    3.3636    0.3706    1.4978 H   0  0  0  0  0  0  0  0  0  0  0  0
    4.6611   -0.8861    1.5644 H   0  0  0  0  0  0  0  0  0  0  0  0
    4.4980    0.4140   -0.4904 H   0  0  0  0  0  0  0  0  0  0  0  0
    5.4331    0.3054   -2.7399 H   0  0  0  0  0  0  0  0  0  0  0  0
    5.2301   -2.6769   -4.7750 H   0  0  0  0  0  0  0  0  0  0  0  0
    6.0823   -1.1965   -4.4959 H   0  0  0  0  0  0  0  0  0  0  0  0
    3.4067   -1.3878   -5.9826 H   0  0  0  0  0  0  0  0  0  0  0  0
    3.4180    0.8093   -6.3557 H   0  0  0  0  0  0  0  0  0  0  0  0
    2.6916    6.6081   -4.0952 H   0  0  0  0  0  0  0  0  0  0  0  0
    1.3768    5.3002   -2.4187 H   0  0  0  0  0  0  0  0  0  0  0  0
    1.7618    2.8170   -2.3303 H   0  0  0  0  0  0  0  0  0  0  0  0
    3.8564    1.9278   -3.3101 H   0  0  0  0  0  0  0  0  0  0  0  0
    6.2010    5.1980   -5.6676 H   0  0  0  0  0  0  0  0  0  0  0  0
    7.3850    4.0485   -5.6413 H   0  0  0  0  0  0  0  0  0  0  0  0
    3.3935   -2.5781   -7.9960 H   0  0  0  0  0  0  0  0  0  0  0  0
    4.5665   -3.6222   -9.8953 H   0  0  0  0  0  0  0  0  0  0  0  0
    7.0116   -3.3358  -10.1807 H   0  0  0  0  0  0  0  0  0  0  0  0
    8.2993   -2.0175   -8.5178 H   0  0  0  0  0  0  0  0  0  0  0  0
    7.1731   -1.0062   -6.6100 H   0  0  0  0  0  0  0  0  0  0  0  0
    3.1480   -3.2661   -3.5177 H   0  0  0  0  0  0  0  0  0  0  0  0
    0.2773   -3.9924   -0.4339 H   0  0  0  0  0  0  0  0  0  0  0  0
    0.5866   -2.2560   -0.3922 H   0  0  0  0  0  0  0  0  0  0  0  0
    1.4535   -3.3887    0.7236 H   0  0  0  0  0  0  0  0  0  0  0  0
  1  2  1  0  0  0  0
  1 33  1  0  0  0  0
  1 34  1  0  0  0  0
  1 35  1  0  0  0  0
  2  3  1  0  0  0  0
  3  4  2  0  0  0  0
  3 30  1  0  0  0  0
  4  5  1  0  0  0  0
  4 36  1  0  0  0  0
  5  6  2  0  0  0  0
  5 37  1  0  0  0  0
  6  7  1  0  0  0  0
  6 29  1  0  0  0  0
  7  8  1  0  0  0  0
  7 38  1  0  0  0  0
  7 39  1  0  0  0  0
  8  9  1  0  0  0  0
  8 23  1  0  0  0  0
  8 40  1  0  0  0  0
  9 10  1  0  0  0  0
  9 41  1  0  0  0  0
 10 11  2  0  0  0  0
 10 12  1  0  0  0  0
 12 13  2  0  0  0  0
 12 21  1  0  0  0  0
 13 14  1  0  0  0  0
 14 15  2  0  0  0  0
 15 16  1  0  0  0  0
 15 20  1  0  0  0  0
 16 17  2  0  0  0  0
 16 42  1  0  0  0  0
 17 18  1  0  0  0  0
 17 43  1  0  0  0  0
 18 19  2  0  0  0  0
 18 44  1  0  0  0  0
 19 20  1  0  0  0  0
 19 45  1  0  0  0  0
 20 21  2  0  0  0  0
 21 22  1  0  0  0  0
 22 46  1  0  0  0  0
 22 47  1  0  0  0  0
 23 24  2  0  0  0  0
 23 28  1  0  0  0  0
 24 25  1  0  0  0  0
 24 48  1  0  0  0  0
 25 26  2  0  0  0  0
 25 49  1  0  0  0  0
 26 27  1  0  0  0  0
 26 50  1  0  0  0  0
 27 28  2  0  0  0  0
 27 51  1  0  0  0  0
 28 52  1  0  0  0  0
 29 30  2  0  0  0  0
 29 53  1  0  0  0  0
 30 31  1  0  0  0  0
 31 32  1  0  0  0  0
 32 54  1  0  0  0  0
 32 55  1  0  0  0  0
 32 56  1  0  0  0  0
M  END
$$$$
