
 OpenBabel01122422423D

 44 46  0  0  1  0  0  0  0  0999 V2000
    1.2487    0.5484    2.4970 C   0  0  0  0  0  0  0  0  0  0  0  0
    2.5783    0.2274    2.0880 O   0  0  0  0  0  0  0  0  0  0  0  0
    3.0889    1.0406    1.1147 C   0  0  0  0  0  0  0  0  0  0  0  0
    2.4821    1.9645    0.5830 O   0  0  0  0  0  0  0  0  0  0  0  0
    4.5819    0.7175    0.8894 C   0  0  3  0  0  0  0  0  0  0  0  0
    5.0295    1.0926   -0.4457 N   0  0  0  0  0  0  0  0  0  0  0  0
    4.8475    0.2568   -1.5243 C   0  0  0  0  0  0  0  0  0  0  0  0
    4.3324   -0.8515   -1.4384 O   0  0  0  0  0  0  0  0  0  0  0  0
    5.3281    0.8100   -2.7837 C   0  0  0  0  0  0  0  0  0  0  0  0
    5.3009    0.2082   -4.0232 C   0  0  0  0  0  0  0  0  0  0  0  0
    5.8546    1.1255   -4.8840 N   0  0  0  0  0  0  0  0  0  0  0  0
    6.0260    1.0330   -6.2922 C   0  0  0  0  0  0  0  0  0  0  0  0
    5.5692   -0.0905   -6.9931 C   0  0  0  0  0  0  0  0  0  0  0  0
    5.7259   -0.1645   -8.3786 C   0  0  0  0  0  0  0  0  0  0  0  0
    6.3401    0.8761   -9.0741 C   0  0  0  0  0  0  0  0  0  0  0  0
    6.8083    2.0091   -8.3928 C   0  0  0  0  0  0  0  0  0  0  0  0
    7.4747    3.1421   -9.1403 C   0  0  0  0  0  0  0  0  0  0  0  0
    7.5732    2.9205  -10.4806 F   0  0  0  0  0  0  0  0  0  0  0  0
    6.8064    4.3194   -9.0069 F   0  0  0  0  0  0  0  0  0  0  0  0
    8.7434    3.3759   -8.7087 F   0  0  0  0  0  0  0  0  0  0  0  0
    6.6447    2.0805   -6.9952 C   0  0  0  0  0  0  0  0  0  0  0  0
    6.2360    2.2233   -4.1818 N   0  0  0  0  0  0  0  0  0  0  0  0
    5.9098    2.0455   -2.9074 N   0  0  0  0  0  0  0  0  0  0  0  0
    5.4041    1.4157    1.9551 C   0  0  0  0  0  0  0  0  0  0  0  0
    5.4231    2.8180    2.0736 C   0  0  0  0  0  0  0  0  0  0  0  0
    6.0795    3.4236    3.1465 C   0  0  0  0  0  0  0  0  0  0  0  0
    6.7222    2.6346    4.0948 C   0  0  0  0  0  0  0  0  0  0  0  0
    7.3169    3.2190    5.1425 F   0  0  0  0  0  0  0  0  0  0  0  0
    6.7419    1.2524    3.9819 C   0  0  0  0  0  0  0  0  0  0  0  0
    6.0847    0.6553    2.9135 C   0  0  0  0  0  0  0  0  0  0  0  0
    6.0856   -0.6819    2.8265 F   0  0  0  0  0  0  0  0  0  0  0  0
    0.9601   -0.1531    3.2853 H   0  0  0  0  0  0  0  0  0  0  0  0
    0.5511    0.4400    1.6616 H   0  0  0  0  0  0  0  0  0  0  0  0
    1.2104    1.5617    2.9092 H   0  0  0  0  0  0  0  0  0  0  0  0
    4.6865   -0.3714    0.9670 H   0  0  0  0  0  0  0  0  0  0  0  0
    5.3182    2.0455   -0.6361 H   0  0  0  0  0  0  0  0  0  0  0  0
    4.9392   -0.7607   -4.3296 H   0  0  0  0  0  0  0  0  0  0  0  0
    5.0780   -0.9231   -6.4977 H   0  0  0  0  0  0  0  0  0  0  0  0
    5.3615   -1.0354   -8.9196 H   0  0  0  0  0  0  0  0  0  0  0  0
    6.4501    0.8001  -10.1550 H   0  0  0  0  0  0  0  0  0  0  0  0
    7.0100    2.9643   -6.4711 H   0  0  0  0  0  0  0  0  0  0  0  0
    4.8957    3.4457    1.3561 H   0  0  0  0  0  0  0  0  0  0  0  0
    6.0750    4.5038    3.2609 H   0  0  0  0  0  0  0  0  0  0  0  0
    7.2445    0.6462    4.7262 H   0  0  0  0  0  0  0  0  0  0  0  0
  1  2  1  0  0  0  0
  1 32  1  0  0  0  0
  1 33  1  0  0  0  0
  1 34  1  0  0  0  0
  2  3  1  0  0  0  0
  3  4  2  0  0  0  0
  3  5  1  0  0  0  0
  5  6  1  0  0  0  0
  5 24  1  0  0  0  0
  5 35  1  0  0  0  0
  6  7  1  0  0  0  0
  6 36  1  0  0  0  0
  7  8  2  0  0  0  0
  7  9  1  0  0  0  0
  9 10  2  0  0  0  0
  9 23  1  0  0  0  0
 10 11  1  0  0  0  0
 10 37  1  0  0  0  0
 11 12  1  0  0  0  0
 11 22  1  0  0  0  0
 12 13  2  0  0  0  0
 12 21  1  0  0  0  0
 13 14  1  0  0  0  0
 13 38  1  0  0  0  0
 14 15  2  0  0  0  0
 14 39  1  0  0  0  0
 15 16  1  0  0  0  0
 15 40  1  0  0  0  0
 16 17  1  0  0  0  0
 16 21  2  0  0  0  0
 17 18  1  0  0  0  0
 17 19  1  0  0  0  0
 17 20  1  0  0  0  0
 21 41  1  0  0  0  0
 22 23  2  0  0  0  0
 24 25  2  0  0  0  0
 24 30  1  0  0  0  0
 25 26  1  0  0  0  0
 25 42  1  0  0  0  0
 26 27  2  0  0  0  0
 26 43  1  0  0  0  0
 27 28  1  0  0  0  0
 27 29  1  0  0  0  0
 29 30  2  0  0  0  0
 29 44  1  0  0  0  0
 30 31  1  0  0  0  0
M  END
$$$$
