
 OpenBabel01122422423D

 56 58  0  0  1  0  0  0  0  0999 V2000
    9.9497   -8.2338    3.0099 C   0  0  0  0  0  0  0  0  0  0  0  0
   10.9476   -7.7237    2.1275 O   0  0  0  0  0  0  0  0  0  0  0  0
   10.7179   -6.4095    1.7775 C   0  0  0  0  0  0  0  0  0  0  0  0
   11.6232   -5.8185    0.9155 C   0  0  0  0  0  0  0  0  0  0  0  0
   11.4011   -4.4994    0.5338 C   0  0  0  0  0  0  0  0  0  0  0  0
   10.2815   -3.8253    1.0191 C   0  0  0  0  0  0  0  0  0  0  0  0
    9.4140   -4.4905    1.8848 C   0  0  0  0  0  0  0  0  0  0  0  0
    8.1531   -3.8118    2.4016 C   0  0  0  0  0  0  0  0  0  0  0  0
    8.0396   -2.5171    1.9776 F   0  0  0  0  0  0  0  0  0  0  0  0
    7.0252   -4.4337    1.9328 F   0  0  0  0  0  0  0  0  0  0  0  0
    8.0928   -3.8492    3.9439 C   0  0  0  0  0  0  0  0  0  0  0  0
    9.1417   -3.1022    4.6255 N   0  0  0  0  0  0  0  0  0  0  0  0
    9.0235   -1.7663    4.9133 C   0  0  0  0  0  0  0  0  0  0  0  0
    8.0081   -1.1193    4.6720 O   0  0  0  0  0  0  0  0  0  0  0  0
   10.2650   -1.0990    5.4674 C   0  0  0  0  0  0  0  0  0  0  0  0
   11.1263   -2.0196    6.3284 C   0  0  3  0  0  0  0  0  0  0  0  0
   11.6308   -3.0736    5.4868 O   0  0  0  0  0  0  0  0  0  0  0  0
   12.3181   -1.3750    7.0011 C   0  0  0  0  0  0  0  0  0  0  0  0
   12.6749   -0.0298    6.8350 C   0  0  0  0  0  0  0  0  0  0  0  0
   13.7848    0.4982    7.4988 C   0  0  0  0  0  0  0  0  0  0  0  0
   14.5467   -0.3064    8.3415 C   0  0  0  0  0  0  0  0  0  0  0  0
   15.5659    0.3238    9.0040 O   0  0  0  0  0  0  0  0  0  0  0  0
   15.9677   -0.3257   10.2132 C   0  0  0  0  0  0  0  0  0  0  0  0
   16.6559    0.6346   11.1486 C   0  0  0  0  0  0  0  0  0  0  0  0
   16.5001    0.4646   12.5340 C   0  0  0  0  0  0  0  0  0  0  0  0
   17.1510    1.3090   13.4293 C   0  0  0  0  0  0  0  0  0  0  0  0
   17.9751    2.3250   12.9517 C   0  0  0  0  0  0  0  0  0  0  0  0
   18.1456    2.4976   11.5754 C   0  0  0  0  0  0  0  0  0  0  0  0
   17.4944    1.6525   10.6774 C   0  0  0  0  0  0  0  0  0  0  0  0
   14.2392   -1.6602    8.4670 C   0  0  0  0  0  0  0  0  0  0  0  0
   13.1222   -2.1832    7.8203 C   0  0  0  0  0  0  0  0  0  0  0  0
    9.6359   -5.7750    2.2718 N   0  0  0  0  0  0  0  0  0  0  0  0
   10.1520   -9.2962    3.1721 H   0  0  0  0  0  0  0  0  0  0  0  0
    8.9457   -8.1526    2.5766 H   0  0  0  0  0  0  0  0  0  0  0  0
    9.9971   -7.7292    3.9817 H   0  0  0  0  0  0  0  0  0  0  0  0
   12.4759   -6.3750    0.5433 H   0  0  0  0  0  0  0  0  0  0  0  0
   12.0876   -4.0044   -0.1481 H   0  0  0  0  0  0  0  0  0  0  0  0
   10.0858   -2.8002    0.7146 H   0  0  0  0  0  0  0  0  0  0  0  0
    8.1484   -4.8791    4.3141 H   0  0  0  0  0  0  0  0  0  0  0  0
    7.1256   -3.4481    4.2668 H   0  0  0  0  0  0  0  0  0  0  0  0
   10.0506   -3.5525    4.7597 H   0  0  0  0  0  0  0  0  0  0  0  0
    9.9244   -0.2460    6.0679 H   0  0  0  0  0  0  0  0  0  0  0  0
   10.8330   -0.7201    4.6100 H   0  0  0  0  0  0  0  0  0  0  0  0
   10.4996   -2.4837    7.1010 H   0  0  0  0  0  0  0  0  0  0  0  0
   12.4544   -2.7442    5.0814 H   0  0  0  0  0  0  0  0  0  0  0  0
   12.0985    0.6400    6.2023 H   0  0  0  0  0  0  0  0  0  0  0  0
   14.0367    1.5492    7.3791 H   0  0  0  0  0  0  0  0  0  0  0  0
   16.6612   -1.1411    9.9760 H   0  0  0  0  0  0  0  0  0  0  0  0
   15.0886   -0.7246   10.7367 H   0  0  0  0  0  0  0  0  0  0  0  0
   15.8637   -0.3277   12.9227 H   0  0  0  0  0  0  0  0  0  0  0  0
   17.0186    1.1727   14.4988 H   0  0  0  0  0  0  0  0  0  0  0  0
   18.4820    2.9846   13.6452 H   0  0  0  0  0  0  0  0  0  0  0  0
   18.7895    3.2905   11.2037 H   0  0  0  0  0  0  0  0  0  0  0  0
   17.6389    1.7934    9.6080 H   0  0  0  0  0  0  0  0  0  0  0  0
   14.8393   -2.3316    9.0706 H   0  0  0  0  0  0  0  0  0  0  0  0
   12.8842   -3.2388    7.9494 H   0  0  0  0  0  0  0  0  0  0  0  0
  1  2  1  0  0  0  0
  1 33  1  0  0  0  0
  1 34  1  0  0  0  0
  1 35  1  0  0  0  0
  2  3  1  0  0  0  0
  3  4  2  0  0  0  0
  3 32  1  0  0  0  0
  4  5  1  0  0  0  0
  4 36  1  0  0  0  0
  5  6  2  0  0  0  0
  5 37  1  0  0  0  0
  6  7  1  0  0  0  0
  6 38  1  0  0  0  0
  7  8  1  0  0  0  0
  7 32  2  0  0  0  0
  8  9  1  0  0  0  0
  8 10  1  0  0  0  0
  8 11  1  0  0  0  0
 11 12  1  0  0  0  0
 11 39  1  0  0  0  0
 11 40  1  0  0  0  0
 12 13  1  0  0  0  0
 12 41  1  0  0  0  0
 13 14  2  0  0  0  0
 13 15  1  0  0  0  0
 15 16  1  0  0  0  0
 15 42  1  0  0  0  0
 15 43  1  0  0  0  0
 16 17  1  0  0  0  0
 16 18  1  0  0  0  0
 16 44  1  0  0  0  0
 17 45  1  0  0  0  0
 18 19  2  0  0  0  0
 18 31  1  0  0  0  0
 19 20  1  0  0  0  0
 19 46  1  0  0  0  0
 20 21  2  0  0  0  0
 20 47  1  0  0  0  0
 21 22  1  0  0  0  0
 21 30  1  0  0  0  0
 22 23  1  0  0  0  0
 23 24  1  0  0  0  0
 23 48  1  0  0  0  0
 23 49  1  0  0  0  0
 24 25  2  0  0  0  0
 24 29  1  0  0  0  0
 25 26  1  0  0  0  0
 25 50  1  0  0  0  0
 26 27  2  0  0  0  0
 26 51  1  0  0  0  0
 27 28  1  0  0  0  0
 27 52  1  0  0  0  0
 28 29  2  0  0  0  0
 28 53  1  0  0  0  0
 29 54  1  0  0  0  0
 30 31  2  0  0  0  0
 30 55  1  0  0  0  0
 31 56  1  0  0  0  0
M  END
$$$$
