
 OpenBabel01122422423D

 47 49  0  0  0  0  0  0  0  0999 V2000
   -2.1147   -2.1707   -0.1044 N   0  0  0  0  0  0  0  0  0  0  0  0
   -0.9731   -2.0067    0.0100 C   0  0  0  0  0  0  0  0  0  0  0  0
    0.4509   -1.8107    0.1406 C   0  0  0  0  0  0  0  0  0  0  0  0
    1.1390   -0.9769   -0.7520 C   0  0  0  0  0  0  0  0  0  0  0  0
    2.5289   -0.7953   -0.6399 C   0  0  0  0  0  0  0  0  0  0  0  0
    3.2473   -1.4517    0.3682 C   0  0  0  0  0  0  0  0  0  0  0  0
    4.7259   -1.3028    0.5372 C   0  0  0  0  0  0  0  0  0  0  0  0
    5.2413   -1.4564    1.6404 O   0  0  0  0  0  0  0  0  0  0  0  0
    5.4666   -1.0353   -0.5944 N   0  0  0  0  0  0  0  0  0  0  0  0
    6.9188   -0.9451   -0.5320 C   0  0  0  0  0  0  0  0  0  0  0  0
    7.5911   -2.3124   -0.7087 C   0  0  0  0  0  0  0  0  0  0  0  0
    7.8138   -2.7903   -1.8194 O   0  0  0  0  0  0  0  0  0  0  0  0
    7.8421   -2.9785    0.4692 N   0  0  0  0  0  0  0  0  0  0  0  0
    8.3959   -4.3138    0.5119 C   0  0  0  0  0  0  0  0  0  0  0  0
    9.8895   -4.3109    0.6767 C   0  0  0  0  0  0  0  0  0  0  0  0
   10.7441   -4.3114   -0.4297 C   0  0  0  0  0  0  0  0  0  0  0  0
   12.1349   -4.3221   -0.2533 C   0  0  0  0  0  0  0  0  0  0  0  0
   12.7208   -4.3388    1.0270 C   0  0  0  0  0  0  0  0  0  0  0  0
   14.1912   -4.4017    1.2069 C   0  0  0  0  0  0  0  0  0  0  0  0
   14.8321   -3.7914    2.3014 C   0  0  0  0  0  0  0  0  0  0  0  0
   16.2131   -3.9060    2.4957 C   0  0  0  0  0  0  0  0  0  0  0  0
   16.9882   -4.6245    1.5909 C   0  0  0  0  0  0  0  0  0  0  0  0
   16.3861   -5.2165    0.4866 C   0  0  0  0  0  0  0  0  0  0  0  0
   15.0056   -5.1054    0.2994 C   0  0  0  0  0  0  0  0  0  0  0  0
   11.8466   -4.3281    2.1265 C   0  0  0  0  0  0  0  0  0  0  0  0
   10.4628   -4.3095    1.9468 C   0  0  0  0  0  0  0  0  0  0  0  0
    9.6754   -4.3134    3.0325 F   0  0  0  0  0  0  0  0  0  0  0  0
    2.5532   -2.2628    1.2774 C   0  0  0  0  0  0  0  0  0  0  0  0
    1.1671   -2.4472    1.1605 C   0  0  0  0  0  0  0  0  0  0  0  0
    0.5967   -0.4549   -1.5397 H   0  0  0  0  0  0  0  0  0  0  0  0
    3.0256   -0.1187   -1.3311 H   0  0  0  0  0  0  0  0  0  0  0  0
    5.0465   -1.1218   -1.5101 H   0  0  0  0  0  0  0  0  0  0  0  0
    7.2298   -0.4927    0.4152 H   0  0  0  0  0  0  0  0  0  0  0  0
    7.2493   -0.2921   -1.3458 H   0  0  0  0  0  0  0  0  0  0  0  0
    7.4899   -2.5791    1.3346 H   0  0  0  0  0  0  0  0  0  0  0  0
    8.1177   -4.8654   -0.3937 H   0  0  0  0  0  0  0  0  0  0  0  0
    7.9263   -4.8363    1.3532 H   0  0  0  0  0  0  0  0  0  0  0  0
   10.3365   -4.3102   -1.4397 H   0  0  0  0  0  0  0  0  0  0  0  0
   12.7604   -4.3160   -1.1444 H   0  0  0  0  0  0  0  0  0  0  0  0
   14.2619   -3.2123    3.0248 H   0  0  0  0  0  0  0  0  0  0  0  0
   16.6799   -3.4368    3.3580 H   0  0  0  0  0  0  0  0  0  0  0  0
   18.0588   -4.7252    1.7466 H   0  0  0  0  0  0  0  0  0  0  0  0
   16.9838   -5.7777   -0.2270 H   0  0  0  0  0  0  0  0  0  0  0  0
   14.5697   -5.6034   -0.5639 H   0  0  0  0  0  0  0  0  0  0  0  0
   12.2221   -4.3599    3.1453 H   0  0  0  0  0  0  0  0  0  0  0  0
    3.0943   -2.7635    2.0798 H   0  0  0  0  0  0  0  0  0  0  0  0
    0.6578   -3.0938    1.8737 H   0  0  0  0  0  0  0  0  0  0  0  0
  1  2  3  0  0  0  0
  2  3  1  0  0  0  0
  3  4  2  0  0  0  0
  3 29  1  0  0  0  0
  4  5  1  0  0  0  0
  4 30  1  0  0  0  0
  5  6  2  0  0  0  0
  5 31  1  0  0  0  0
  6  7  1  0  0  0  0
  6 28  1  0  0  0  0
  7  8  2  0  0  0  0
  7  9  1  0  0  0  0
  9 10  1  0  0  0  0
  9 32  1  0  0  0  0
 10 11  1  0  0  0  0
 10 33  1  0  0  0  0
 10 34  1  0  0  0  0
 11 12  2  0  0  0  0
 11 13  1  0  0  0  0
 13 14  1  0  0  0  0
 13 35  1  0  0  0  0
 14 15  1  0  0  0  0
 14 36  1  0  0  0  0
 14 37  1  0  0  0  0
 15 16  2  0  0  0  0
 15 26  1  0  0  0  0
 16 17  1  0  0  0  0
 16 38  1  0  0  0  0
 17 18  2  0  0  0  0
 17 39  1  0  0  0  0
 18 19  1  0  0  0  0
 18 25  1  0  0  0  0
 19 20  2  0  0  0  0
 19 24  1  0  0  0  0
 20 21  1  0  0  0  0
 20 40  1  0  0  0  0
 21 22  2  0  0  0  0
 21 41  1  0  0  0  0
 22 23  1  0  0  0  0
 22 42  1  0  0  0  0
 23 24  2  0  0  0  0
 23 43  1  0  0  0  0
 24 44  1  0  0  0  0
 25 26  2  0  0  0  0
 25 45  1  0  0  0  0
 26 27  1  0  0  0  0
 28 29  2  0  0  0  0
 28 46  1  0  0  0  0
 29 47  1  0  0  0  0
M  END
$$$$
