
 OpenBabel01122422423D

 42 45  0  0  0  0  0  0  0  0999 V2000
    1.0655   -0.3061    0.2181 O   0  0  0  0  0  0  0  0  0  0  0  0
    2.2410   -0.0839   -0.0416 C   0  0  0  0  0  0  0  0  0  0  0  0
    2.8670    1.1363    0.1289 N   0  0  0  0  0  0  0  0  0  0  0  0
    2.2382    2.3231    0.5672 C   0  0  0  0  0  0  0  0  0  0  0  0
    0.9889    2.3735    1.1868 C   0  0  0  0  0  0  0  0  0  0  0  0
    0.4378    3.6017    1.5462 C   0  0  0  0  0  0  0  0  0  0  0  0
    1.1668    4.7479    1.2879 C   0  0  0  0  0  0  0  0  0  0  0  0
    0.6119    5.9551    1.6916 O   0  0  0  0  0  0  0  0  0  0  0  0
    1.4894    6.9418    2.0788 C   0  0  0  0  0  0  0  0  0  0  0  0
    1.1749    8.2531    1.7227 C   0  0  0  0  0  0  0  0  0  0  0  0
    2.0386    9.2926    2.0748 C   0  0  0  0  0  0  0  0  0  0  0  0
    3.2074    9.0214    2.7888 C   0  0  0  0  0  0  0  0  0  0  0  0
    3.5026    7.7166    3.1774 C   0  0  0  0  0  0  0  0  0  0  0  0
    2.6324    6.6817    2.8430 C   0  0  0  0  0  0  0  0  0  0  0  0
    2.3756    4.7411    0.6795 N   0  0  0  0  0  0  0  0  0  0  0  0
    2.8878    3.5350    0.3551 C   0  0  0  0  0  0  0  0  0  0  0  0
    3.0747   -1.0930   -0.6212 C   0  0  0  0  0  0  0  0  0  0  0  0
    4.3764   -1.4492   -0.3406 C   0  0  0  0  0  0  0  0  0  0  0  0
    4.6827   -2.6162   -0.9666 N   0  0  0  0  0  0  0  0  0  0  0  0
    3.6066   -3.0148   -1.6282 N   0  0  0  0  0  0  0  0  0  0  0  0
    2.6541   -2.0531   -1.5257 N   0  0  0  0  0  0  0  0  0  0  0  0
    1.4977   -2.0904   -2.3487 C   0  0  0  0  0  0  0  0  0  0  0  0
    0.8469   -0.9105   -2.7342 C   0  0  0  0  0  0  0  0  0  0  0  0
   -0.2767   -0.9823   -3.5532 C   0  0  0  0  0  0  0  0  0  0  0  0
   -0.8821    0.1470   -3.9342 F   0  0  0  0  0  0  0  0  0  0  0  0
   -0.7711   -2.2052   -3.9913 C   0  0  0  0  0  0  0  0  0  0  0  0
   -0.1206   -3.3812   -3.6199 C   0  0  0  0  0  0  0  0  0  0  0  0
    1.0216   -3.3256   -2.8159 C   0  0  0  0  0  0  0  0  0  0  0  0
    3.8030    1.2345   -0.2435 H   0  0  0  0  0  0  0  0  0  0  0  0
    0.4228    1.4788    1.4229 H   0  0  0  0  0  0  0  0  0  0  0  0
   -0.5312    3.6577    2.0334 H   0  0  0  0  0  0  0  0  0  0  0  0
    0.2719    8.4649    1.1580 H   0  0  0  0  0  0  0  0  0  0  0  0
    1.8060   10.3133    1.7852 H   0  0  0  0  0  0  0  0  0  0  0  0
    3.8903    9.8273    3.0430 H   0  0  0  0  0  0  0  0  0  0  0  0
    4.4116    7.4981    3.7292 H   0  0  0  0  0  0  0  0  0  0  0  0
    2.8717    5.6678    3.1533 H   0  0  0  0  0  0  0  0  0  0  0  0
    3.8664    3.5868   -0.1124 H   0  0  0  0  0  0  0  0  0  0  0  0
    5.0812   -0.9751    0.3290 H   0  0  0  0  0  0  0  0  0  0  0  0
    1.1924    0.0781   -2.4526 H   0  0  0  0  0  0  0  0  0  0  0  0
   -1.6561   -2.2323   -4.6193 H   0  0  0  0  0  0  0  0  0  0  0  0
   -0.5068   -4.3425   -3.9512 H   0  0  0  0  0  0  0  0  0  0  0  0
    1.5091   -4.2569   -2.5315 H   0  0  0  0  0  0  0  0  0  0  0  0
  1  2  2  0  0  0  0
  2  3  1  0  0  0  0
  2 17  1  0  0  0  0
  3  4  1  0  0  0  0
  3 29  1  0  0  0  0
  4  5  2  0  0  0  0
  4 16  1  0  0  0  0
  5  6  1  0  0  0  0
  5 30  1  0  0  0  0
  6  7  2  0  0  0  0
  6 31  1  0  0  0  0
  7  8  1  0  0  0  0
  7 15  1  0  0  0  0
  8  9  1  0  0  0  0
  9 10  2  0  0  0  0
  9 14  1  0  0  0  0
 10 11  1  0  0  0  0
 10 32  1  0  0  0  0
 11 12  2  0  0  0  0
 11 33  1  0  0  0  0
 12 13  1  0  0  0  0
 12 34  1  0  0  0  0
 13 14  2  0  0  0  0
 13 35  1  0  0  0  0
 14 36  1  0  0  0  0
 15 16  2  0  0  0  0
 16 37  1  0  0  0  0
 17 18  2  0  0  0  0
 17 21  1  0  0  0  0
 18 19  1  0  0  0  0
 18 38  1  0  0  0  0
 19 20  2  0  0  0  0
 20 21  1  0  0  0  0
 21 22  1  0  0  0  0
 22 23  2  0  0  0  0
 22 28  1  0  0  0  0
 23 24  1  0  0  0  0
 23 39  1  0  0  0  0
 24 25  1  0  0  0  0
 24 26  2  0  0  0  0
 26 27  1  0  0  0  0
 26 40  1  0  0  0  0
 27 28  2  0  0  0  0
 27 41  1  0  0  0  0
 28 42  1  0  0  0  0
M  END
$$$$
