
 OpenBabel01122422423D

 52 55  0  0  1  0  0  0  0  0999 V2000
    0.9732    0.0374   -0.0690 C   0  0  0  0  0  0  0  0  0  0  0  0
    2.3972    0.0876   -0.0583 O   0  0  0  0  0  0  0  0  0  0  0  0
    2.9978   -0.6054    0.9588 C   0  0  0  0  0  0  0  0  0  0  0  0
    2.4324   -1.6913    1.6244 C   0  0  0  0  0  0  0  0  0  0  0  0
    3.1140   -2.2913    2.6805 C   0  0  0  0  0  0  0  0  0  0  0  0
    4.3850   -1.8455    3.0391 C   0  0  0  0  0  0  0  0  0  0  0  0
    5.0209   -0.8345    2.3058 C   0  0  0  0  0  0  0  0  0  0  0  0
    6.4620   -0.4277    2.5649 C   0  0  0  0  0  0  0  0  0  0  0  0
    7.3919   -1.5670    3.0503 C   0  0  3  0  0  0  0  0  0  0  0  0
    7.3973   -2.7133    2.1425 N   0  0  0  0  0  0  0  0  0  0  0  0
    7.6174   -3.9878    2.6162 C   0  0  0  0  0  0  0  0  0  0  0  0
    7.7669   -4.2435    3.8096 O   0  0  0  0  0  0  0  0  0  0  0  0
    7.6462   -5.0887    1.6048 C   0  0  0  0  0  0  0  0  0  0  0  0
    7.8919   -6.3773    2.0606 C   0  0  0  0  0  0  0  0  0  0  0  0
    7.8507   -7.4307    1.1545 C   0  0  0  0  0  0  0  0  0  0  0  0
    7.5738   -7.1757   -0.1906 C   0  0  0  0  0  0  0  0  0  0  0  0
    7.5069   -8.2444   -1.1246 N   0  0  0  0  0  0  0  0  0  0  0  0
    7.6046   -9.5954   -0.8437 C   0  0  0  0  0  0  0  0  0  0  0  0
    7.5022  -10.2489   -2.0473 C   0  0  0  0  0  0  0  0  0  0  0  0
    7.3242   -9.3567   -3.0645 N   0  0  0  0  0  0  0  0  0  0  0  0
    7.3229   -8.1739   -2.4894 C   0  0  0  0  0  0  0  0  0  0  0  0
    7.3688   -5.8454   -0.5648 C   0  0  0  0  0  0  0  0  0  0  0  0
    7.3965   -4.7909    0.2999 N   0  0  0  0  0  0  0  0  0  0  0  0
    8.8191   -1.1049    3.3028 C   0  0  0  0  0  0  0  0  0  0  0  0
    9.3696   -1.2205    4.5909 C   0  0  0  0  0  0  0  0  0  0  0  0
   10.6942   -0.8594    4.8375 C   0  0  0  0  0  0  0  0  0  0  0  0
   11.4892   -0.3828    3.7981 C   0  0  0  0  0  0  0  0  0  0  0  0
   10.9586   -0.2673    2.5143 C   0  0  0  0  0  0  0  0  0  0  0  0
    9.6319   -0.6260    2.2671 C   0  0  0  0  0  0  0  0  0  0  0  0
    4.2912   -0.1892    1.2933 C   0  0  0  0  0  0  0  0  0  0  0  0
    0.6167    0.7418   -0.8262 H   0  0  0  0  0  0  0  0  0  0  0  0
    0.5593    0.3461    0.8977 H   0  0  0  0  0  0  0  0  0  0  0  0
    0.6132   -0.9572   -0.3507 H   0  0  0  0  0  0  0  0  0  0  0  0
    1.4690   -2.0984    1.3393 H   0  0  0  0  0  0  0  0  0  0  0  0
    2.6633   -3.1231    3.2155 H   0  0  0  0  0  0  0  0  0  0  0  0
    4.8787   -2.3356    3.8744 H   0  0  0  0  0  0  0  0  0  0  0  0
    6.4629    0.3876    3.3002 H   0  0  0  0  0  0  0  0  0  0  0  0
    6.8690   -0.0126    1.6332 H   0  0  0  0  0  0  0  0  0  0  0  0
    6.9980   -1.9242    4.0102 H   0  0  0  0  0  0  0  0  0  0  0  0
    7.3067   -2.5890    1.1393 H   0  0  0  0  0  0  0  0  0  0  0  0
    8.1017   -6.5625    3.1099 H   0  0  0  0  0  0  0  0  0  0  0  0
    8.0406   -8.4274    1.5390 H   0  0  0  0  0  0  0  0  0  0  0  0
    7.7291   -9.9906    0.1527 H   0  0  0  0  0  0  0  0  0  0  0  0
    7.5426  -11.3165   -2.2258 H   0  0  0  0  0  0  0  0  0  0  0  0
    7.2035   -7.2424   -3.0240 H   0  0  0  0  0  0  0  0  0  0  0  0
    7.1543   -5.5516   -1.5889 H   0  0  0  0  0  0  0  0  0  0  0  0
    8.7731   -1.6202    5.4105 H   0  0  0  0  0  0  0  0  0  0  0  0
   11.1080   -0.9644    5.8371 H   0  0  0  0  0  0  0  0  0  0  0  0
   12.5259   -0.1163    3.9852 H   0  0  0  0  0  0  0  0  0  0  0  0
   11.5839    0.0893    1.7001 H   0  0  0  0  0  0  0  0  0  0  0  0
    9.2459   -0.5549    1.2541 H   0  0  0  0  0  0  0  0  0  0  0  0
    4.7323    0.6409    0.7449 H   0  0  0  0  0  0  0  0  0  0  0  0
  1  2  1  0  0  0  0
  1 31  1  0  0  0  0
  1 32  1  0  0  0  0
  1 33  1  0  0  0  0
  2  3  1  0  0  0  0
  3  4  2  0  0  0  0
  3 30  1  0  0  0  0
  4  5  1  0  0  0  0
  4 34  1  0  0  0  0
  5  6  2  0  0  0  0
  5 35  1  0  0  0  0
  6  7  1  0  0  0  0
  6 36  1  0  0  0  0
  7  8  1  0  0  0  0
  7 30  2  0  0  0  0
  8  9  1  0  0  0  0
  8 37  1  0  0  0  0
  8 38  1  0  0  0  0
  9 10  1  0  0  0  0
  9 24  1  0  0  0  0
  9 39  1  0  0  0  0
 10 11  1  0  0  0  0
 10 40  1  0  0  0  0
 11 12  2  0  0  0  0
 11 13  1  0  0  0  0
 13 14  2  0  0  0  0
 13 23  1  0  0  0  0
 14 15  1  0  0  0  0
 14 41  1  0  0  0  0
 15 16  2  0  0  0  0
 15 42  1  0  0  0  0
 16 17  1  0  0  0  0
 16 22  1  0  0  0  0
 17 18  1  0  0  0  0
 17 21  1  0  0  0  0
 18 19  2  0  0  0  0
 18 43  1  0  0  0  0
 19 20  1  0  0  0  0
 19 44  1  0  0  0  0
 20 21  2  0  0  0  0
 21 45  1  0  0  0  0
 22 23  2  0  0  0  0
 22 46  1  0  0  0  0
 24 25  2  0  0  0  0
 24 29  1  0  0  0  0
 25 26  1  0  0  0  0
 25 47  1  0  0  0  0
 26 27  2  0  0  0  0
 26 48  1  0  0  0  0
 27 28  1  0  0  0  0
 27 49  1  0  0  0  0
 28 29  2  0  0  0  0
 28 50  1  0  0  0  0
 29 51  1  0  0  0  0
 30 52  1  0  0  0  0
M  END
$$$$
