
 OpenBabel01122422423D

 45 48  0  0  0  0  0  0  0  0999 V2000
    3.0687   -1.6424   -1.8389 O   0  0  0  0  0  0  0  0  0  0  0  0
    3.3781   -0.7607   -1.0426 C   0  0  0  0  0  0  0  0  0  0  0  0
    2.9867    0.5496   -1.1777 N   0  0  0  0  0  0  0  0  0  0  0  0
    2.2340    1.0104   -2.3175 C   0  0  0  0  0  0  0  0  0  0  0  0
    3.1482    1.5797   -3.3744 C   0  0  0  0  0  0  0  0  0  0  0  0
    3.7118    0.7329   -4.3194 C   0  0  0  0  0  0  0  0  0  0  0  0
    4.4451    1.2888   -5.3637 C   0  0  0  0  0  0  0  0  0  0  0  0
    4.9410    0.5638   -6.4247 O   0  0  0  0  0  0  0  0  0  0  0  0
    4.2475   -0.5464   -6.8624 C   0  0  0  0  0  0  0  0  0  0  0  0
    2.8482   -0.6464   -6.8609 C   0  0  0  0  0  0  0  0  0  0  0  0
    2.2281   -1.8400   -7.2366 C   0  0  0  0  0  0  0  0  0  0  0  0
    3.0075   -2.8999   -7.6831 C   0  0  0  0  0  0  0  0  0  0  0  0
    2.4103   -4.0458   -8.0424 F   0  0  0  0  0  0  0  0  0  0  0  0
    4.3895   -2.7700   -7.7677 C   0  0  0  0  0  0  0  0  0  0  0  0
    5.1308   -3.7840   -8.2385 F   0  0  0  0  0  0  0  0  0  0  0  0
    5.0180   -1.5991   -7.3583 C   0  0  0  0  0  0  0  0  0  0  0  0
    4.7245    2.6491   -5.3510 C   0  0  0  0  0  0  0  0  0  0  0  0
    4.1921    3.4112   -4.3267 C   0  0  0  0  0  0  0  0  0  0  0  0
    3.3997    2.9142   -3.3517 N   0  0  0  0  0  0  0  0  0  0  0  0
    4.2781   -1.0134    0.1245 C   0  0  0  0  0  0  0  0  0  0  0  0
    3.9880   -0.3541    1.2622 C   0  0  0  0  0  0  0  0  0  0  0  0
    4.8394   -0.4432    2.4626 C   0  0  0  0  0  0  0  0  0  0  0  0
    4.5532    0.1809    3.4749 O   0  0  0  0  0  0  0  0  0  0  0  0
    5.9542   -1.2164    2.3639 N   0  0  0  0  0  0  0  0  0  0  0  0
    6.2889   -1.9576    1.2256 C   0  0  0  0  0  0  0  0  0  0  0  0
    7.4617   -2.7185    1.2451 C   0  0  0  0  0  0  0  0  0  0  0  0
    7.7996   -3.4835    0.1335 C   0  0  0  0  0  0  0  0  0  0  0  0
    6.9464   -3.5015   -0.9665 C   0  0  0  0  0  0  0  0  0  0  0  0
    7.2632   -4.2604   -2.0208 F   0  0  0  0  0  0  0  0  0  0  0  0
    5.7806   -2.7391   -0.9919 C   0  0  0  0  0  0  0  0  0  0  0  0
    5.4446   -1.9297    0.0992 C   0  0  0  0  0  0  0  0  0  0  0  0
    3.4539    1.2727   -0.6454 H   0  0  0  0  0  0  0  0  0  0  0  0
    1.5560    1.7986   -1.9627 H   0  0  0  0  0  0  0  0  0  0  0  0
    1.6180    0.2081   -2.7319 H   0  0  0  0  0  0  0  0  0  0  0  0
    3.5339   -0.3361   -4.2493 H   0  0  0  0  0  0  0  0  0  0  0  0
    2.2267    0.1849   -6.5373 H   0  0  0  0  0  0  0  0  0  0  0  0
    1.1501   -1.9474   -7.1776 H   0  0  0  0  0  0  0  0  0  0  0  0
    6.0978   -1.5215   -7.4148 H   0  0  0  0  0  0  0  0  0  0  0  0
    5.3314    3.1044   -6.1236 H   0  0  0  0  0  0  0  0  0  0  0  0
    4.3821    4.4794   -4.2680 H   0  0  0  0  0  0  0  0  0  0  0  0
    3.1311    0.3014    1.3714 H   0  0  0  0  0  0  0  0  0  0  0  0
    6.5375   -1.2527    3.1915 H   0  0  0  0  0  0  0  0  0  0  0  0
    8.1177   -2.7139    2.1105 H   0  0  0  0  0  0  0  0  0  0  0  0
    8.7124   -4.0700    0.1175 H   0  0  0  0  0  0  0  0  0  0  0  0
    5.1576   -2.8013   -1.8792 H   0  0  0  0  0  0  0  0  0  0  0  0
  1  2  2  0  0  0  0
  2  3  1  0  0  0  0
  2 20  1  0  0  0  0
  3  4  1  0  0  0  0
  3 32  1  0  0  0  0
  4  5  1  0  0  0  0
  4 33  1  0  0  0  0
  4 34  1  0  0  0  0
  5  6  2  0  0  0  0
  5 19  1  0  0  0  0
  6  7  1  0  0  0  0
  6 35  1  0  0  0  0
  7  8  1  0  0  0  0
  7 17  2  0  0  0  0
  8  9  1  0  0  0  0
  9 10  2  0  0  0  0
  9 16  1  0  0  0  0
 10 11  1  0  0  0  0
 10 36  1  0  0  0  0
 11 12  2  0  0  0  0
 11 37  1  0  0  0  0
 12 13  1  0  0  0  0
 12 14  1  0  0  0  0
 14 15  1  0  0  0  0
 14 16  2  0  0  0  0
 16 38  1  0  0  0  0
 17 18  1  0  0  0  0
 17 39  1  0  0  0  0
 18 19  2  0  0  0  0
 18 40  1  0  0  0  0
 20 21  2  0  0  0  0
 20 31  1  0  0  0  0
 21 22  1  0  0  0  0
 21 41  1  0  0  0  0
 22 23  2  0  0  0  0
 22 24  1  0  0  0  0
 24 25  1  0  0  0  0
 24 42  1  0  0  0  0
 25 26  2  0  0  0  0
 25 31  1  0  0  0  0
 26 27  1  0  0  0  0
 26 43  1  0  0  0  0
 27 28  2  0  0  0  0
 27 44  1  0  0  0  0
 28 29  1  0  0  0  0
 28 30  1  0  0  0  0
 30 31  2  0  0  0  0
 30 45  1  0  0  0  0
M  END
$$$$
