
 OpenBabel01122422353D

 56 58  0  0  1  0  0  0  0  0999 V2000
    3.4863   -0.1898   -2.9660 N   0  0  0  0  0  0  0  0  0  0  0  0
    2.6496   -0.8186   -2.0993 C   0  0  0  0  0  0  0  0  0  0  0  0
    1.4659   -0.9805   -2.3936 O   0  0  0  0  0  0  0  0  0  0  0  0
    3.2229   -1.2433   -0.7352 C   0  0  0  0  0  0  0  0  0  0  0  0
    4.6721   -1.0467   -0.4958 N   0  0  0  0  0  0  0  0  0  0  0  0
    5.1149    0.2346    0.0636 C   0  0  0  0  0  0  0  0  0  0  0  0
    4.5636    0.5541    1.4334 C   0  0  0  0  0  0  0  0  0  0  0  0
    4.1625   -0.4272    2.3461 C   0  0  0  0  0  0  0  0  0  0  0  0
    3.4798   -0.0704    3.5168 C   0  0  0  0  0  0  0  0  0  0  0  0
    3.2308    1.2736    3.8443 C   0  0  0  0  0  0  0  0  0  0  0  0
    2.3991    1.6628    5.0104 C   0  0  0  0  0  0  0  0  0  0  0  0
    2.3324    0.8787    6.1750 C   0  0  0  0  0  0  0  0  0  0  0  0
    1.5440    1.2582    7.2675 C   0  0  0  0  0  0  0  0  0  0  0  0
    0.8055    2.4367    7.2232 C   0  0  0  0  0  0  0  0  0  0  0  0
    0.8372    3.2243    6.0803 C   0  0  0  0  0  0  0  0  0  0  0  0
    1.6161    2.8358    4.9866 C   0  0  0  0  0  0  0  0  0  0  0  0
    3.7822    2.2449    2.9915 C   0  0  0  0  0  0  0  0  0  0  0  0
    4.4312    1.8954    1.8047 C   0  0  0  0  0  0  0  0  0  0  0  0
    5.5069   -2.1338   -0.7327 C   0  0  0  0  0  0  0  0  0  0  0  0
    5.0751   -3.1680   -1.2373 O   0  0  0  0  0  0  0  0  0  0  0  0
    6.9770   -1.9838   -0.3556 C   0  0  0  0  0  0  0  0  0  0  0  0
    7.7965   -3.2853   -0.5345 C   0  0  3  0  0  0  0  0  0  0  0  0
    7.7549   -3.5981   -1.9524 O   0  0  0  0  0  0  0  0  0  0  0  0
    9.2921   -3.0814   -0.2070 C   0  0  0  0  0  0  0  0  0  0  0  0
    9.7389   -2.1825    0.7766 C   0  0  0  0  0  0  0  0  0  0  0  0
   11.0961   -2.0868    1.0999 C   0  0  0  0  0  0  0  0  0  0  0  0
   12.0325   -2.8866    0.4517 C   0  0  0  0  0  0  0  0  0  0  0  0
   11.6162   -3.7810   -0.5274 C   0  0  0  0  0  0  0  0  0  0  0  0
   10.2614   -3.8810   -0.8503 C   0  0  0  0  0  0  0  0  0  0  0  0
    7.1979   -4.4280    0.3706 C   0  0  0  0  0  0  0  0  0  0  0  0
    6.2108   -3.9676    1.1836 F   0  0  0  0  0  0  0  0  0  0  0  0
    6.6954   -5.4589   -0.3442 F   0  0  0  0  0  0  0  0  0  0  0  0
    8.1284   -4.9623    1.2053 F   0  0  0  0  0  0  0  0  0  0  0  0
    3.1065   -0.0438   -3.8893 H   0  0  0  0  0  0  0  0  0  0  0  0
    4.4826   -0.3264   -2.8830 H   0  0  0  0  0  0  0  0  0  0  0  0
    2.9861   -2.3062   -0.6271 H   0  0  0  0  0  0  0  0  0  0  0  0
    2.6523   -0.7073    0.0313 H   0  0  0  0  0  0  0  0  0  0  0  0
    4.7945    1.0048   -0.6481 H   0  0  0  0  0  0  0  0  0  0  0  0
    6.2038    0.2941    0.1200 H   0  0  0  0  0  0  0  0  0  0  0  0
    4.3086   -1.4846    2.1322 H   0  0  0  0  0  0  0  0  0  0  0  0
    3.1011   -0.8743    4.1449 H   0  0  0  0  0  0  0  0  0  0  0  0
    2.9035   -0.0429    6.2565 H   0  0  0  0  0  0  0  0  0  0  0  0
    1.5123    0.6308    8.1540 H   0  0  0  0  0  0  0  0  0  0  0  0
    0.2034    2.7367    8.0766 H   0  0  0  0  0  0  0  0  0  0  0  0
    0.2535    4.1407    6.0308 H   0  0  0  0  0  0  0  0  0  0  0  0
    1.5888    3.4653    4.0992 H   0  0  0  0  0  0  0  0  0  0  0  0
    3.6876    3.3028    3.2265 H   0  0  0  0  0  0  0  0  0  0  0  0
    4.7962    2.6889    1.1558 H   0  0  0  0  0  0  0  0  0  0  0  0
    7.0109   -1.6645    0.6922 H   0  0  0  0  0  0  0  0  0  0  0  0
    7.3995   -1.1956   -0.9901 H   0  0  0  0  0  0  0  0  0  0  0  0
    8.2506   -2.9116   -2.4292 H   0  0  0  0  0  0  0  0  0  0  0  0
    9.0506   -1.5583    1.3391 H   0  0  0  0  0  0  0  0  0  0  0  0
   11.4207   -1.3984    1.8769 H   0  0  0  0  0  0  0  0  0  0  0  0
   13.0836   -2.8244    0.7213 H   0  0  0  0  0  0  0  0  0  0  0  0
   12.3420   -4.4176   -1.0283 H   0  0  0  0  0  0  0  0  0  0  0  0
    9.9647   -4.6145   -1.6007 H   0  0  0  0  0  0  0  0  0  0  0  0
  1  2  1  0  0  0  0
  1 34  1  0  0  0  0
  1 35  1  0  0  0  0
  2  3  2  0  0  0  0
  2  4  1  0  0  0  0
  4  5  1  0  0  0  0
  4 36  1  0  0  0  0
  4 37  1  0  0  0  0
  5  6  1  0  0  0  0
  5 19  1  0  0  0  0
  6  7  1  0  0  0  0
  6 38  1  0  0  0  0
  6 39  1  0  0  0  0
  7  8  2  0  0  0  0
  7 18  1  0  0  0  0
  8  9  1  0  0  0  0
  8 40  1  0  0  0  0
  9 10  2  0  0  0  0
  9 41  1  0  0  0  0
 10 11  1  0  0  0  0
 10 17  1  0  0  0  0
 11 12  2  0  0  0  0
 11 16  1  0  0  0  0
 12 13  1  0  0  0  0
 12 42  1  0  0  0  0
 13 14  2  0  0  0  0
 13 43  1  0  0  0  0
 14 15  1  0  0  0  0
 14 44  1  0  0  0  0
 15 16  2  0  0  0  0
 15 45  1  0  0  0  0
 16 46  1  0  0  0  0
 17 18  2  0  0  0  0
 17 47  1  0  0  0  0
 18 48  1  0  0  0  0
 19 20  2  0  0  0  0
 19 21  1  0  0  0  0
 21 22  1  0  0  0  0
 21 49  1  0  0  0  0
 21 50  1  0  0  0  0
 22 23  1  0  0  0  0
 22 24  1  0  0  0  0
 22 30  1  0  0  0  0
 23 51  1  0  0  0  0
 24 25  2  0  0  0  0
 24 29  1  0  0  0  0
 25 26  1  0  0  0  0
 25 52  1  0  0  0  0
 26 27  2  0  0  0  0
 26 53  1  0  0  0  0
 27 28  1  0  0  0  0
 27 54  1  0  0  0  0
 28 29  2  0  0  0  0
 28 55  1  0  0  0  0
 29 56  1  0  0  0  0
 30 31  1  0  0  0  0
 30 32  1  0  0  0  0
 30 33  1  0  0  0  0
M  END
$$$$
