
 OpenBabel01122422423D

 46 49  0  0  0  0  0  0  0  0999 V2000
    0.9982    0.2936   -0.1793 O   0  0  0  0  0  0  0  0  0  0  0  0
    2.2027    0.2028    0.0244 C   0  0  0  0  0  0  0  0  0  0  0  0
    2.8212   -0.3375    1.1430 N   0  0  0  0  0  0  0  0  0  0  0  0
    2.1570   -0.9629    2.2270 C   0  0  0  0  0  0  0  0  0  0  0  0
    0.7859   -1.2336    2.2258 C   0  0  0  0  0  0  0  0  0  0  0  0
    0.1709   -1.8146    3.3312 C   0  0  0  0  0  0  0  0  0  0  0  0
    0.9229   -2.1374    4.4540 C   0  0  0  0  0  0  0  0  0  0  0  0
    0.2612   -2.6613    5.4969 F   0  0  0  0  0  0  0  0  0  0  0  0
    2.3113   -1.9195    4.5078 C   0  0  0  0  0  0  0  0  0  0  0  0
    3.1117   -2.2881    5.7073 C   0  0  0  0  0  0  0  0  0  0  0  0
    2.7746   -3.3944    6.5131 C   0  0  0  0  0  0  0  0  0  0  0  0
    3.5125   -3.7327    7.6531 C   0  0  0  0  0  0  0  0  0  0  0  0
    4.6263   -2.9816    8.0084 C   0  0  0  0  0  0  0  0  0  0  0  0
    4.9926   -1.8895    7.2292 C   0  0  0  0  0  0  0  0  0  0  0  0
    4.2397   -1.5434    6.1006 C   0  0  0  0  0  0  0  0  0  0  0  0
    2.9070   -1.3277    3.3645 C   0  0  0  0  0  0  0  0  0  0  0  0
    3.1369    0.8296   -1.0122 C   0  0  0  0  0  0  0  0  0  0  0  0
    4.1601    1.5133   -0.5894 N   0  0  0  0  0  0  0  0  0  0  0  0
    4.8736    2.2493   -1.5412 N   0  0  0  0  0  0  0  0  0  0  0  0
    5.8615    3.1292   -0.9771 C   0  0  0  0  0  0  0  0  0  0  0  0
    6.2730    4.3022   -1.6311 C   0  0  0  0  0  0  0  0  0  0  0  0
    7.1936    5.1793   -1.0471 C   0  0  0  0  0  0  0  0  0  0  0  0
    7.7354    4.8913    0.1994 C   0  0  0  0  0  0  0  0  0  0  0  0
    7.3569    3.7268    0.8608 C   0  0  0  0  0  0  0  0  0  0  0  0
    6.4222    2.8591    0.2821 C   0  0  0  0  0  0  0  0  0  0  0  0
    4.5498    2.2584   -2.9045 C   0  0  0  0  0  0  0  0  0  0  0  0
    5.1190    2.8678   -3.8086 O   0  0  0  0  0  0  0  0  0  0  0  0
    3.4255    1.3981   -3.3182 C   0  0  0  0  0  0  0  0  0  0  0  0
    2.7418    0.6743   -2.4360 C   0  0  0  0  0  0  0  0  0  0  0  0
    1.7224   -0.1763   -2.8023 O   0  0  0  0  0  0  0  0  0  0  0  0
    3.8198   -0.1757    1.2206 H   0  0  0  0  0  0  0  0  0  0  0  0
    0.1514   -1.0063    1.3761 H   0  0  0  0  0  0  0  0  0  0  0  0
   -0.8969   -2.0126    3.3254 H   0  0  0  0  0  0  0  0  0  0  0  0
    1.9184   -4.0197    6.2671 H   0  0  0  0  0  0  0  0  0  0  0  0
    3.2103   -4.5825    8.2601 H   0  0  0  0  0  0  0  0  0  0  0  0
    5.2036   -3.2459    8.8900 H   0  0  0  0  0  0  0  0  0  0  0  0
    5.8614   -1.2969    7.5039 H   0  0  0  0  0  0  0  0  0  0  0  0
    4.5445   -0.6618    5.5410 H   0  0  0  0  0  0  0  0  0  0  0  0
    3.9810   -1.1499    3.3567 H   0  0  0  0  0  0  0  0  0  0  0  0
    5.8585    4.5977   -2.5898 H   0  0  0  0  0  0  0  0  0  0  0  0
    7.4723    6.0913   -1.5692 H   0  0  0  0  0  0  0  0  0  0  0  0
    8.4464    5.5762    0.6536 H   0  0  0  0  0  0  0  0  0  0  0  0
    7.7864    3.4935    1.8315 H   0  0  0  0  0  0  0  0  0  0  0  0
    6.1553    1.9546    0.8211 H   0  0  0  0  0  0  0  0  0  0  0  0
    3.2153    1.3856   -4.3799 H   0  0  0  0  0  0  0  0  0  0  0  0
    1.4790   -0.0133   -3.7299 H   0  0  0  0  0  0  0  0  0  0  0  0
  1  2  2  0  0  0  0
  2  3  1  0  0  0  0
  2 17  1  0  0  0  0
  3  4  1  0  0  0  0
  3 31  1  0  0  0  0
  4  5  2  0  0  0  0
  4 16  1  0  0  0  0
  5  6  1  0  0  0  0
  5 32  1  0  0  0  0
  6  7  2  0  0  0  0
  6 33  1  0  0  0  0
  7  8  1  0  0  0  0
  7  9  1  0  0  0  0
  9 10  1  0  0  0  0
  9 16  2  0  0  0  0
 10 11  2  0  0  0  0
 10 15  1  0  0  0  0
 11 12  1  0  0  0  0
 11 34  1  0  0  0  0
 12 13  2  0  0  0  0
 12 35  1  0  0  0  0
 13 14  1  0  0  0  0
 13 36  1  0  0  0  0
 14 15  2  0  0  0  0
 14 37  1  0  0  0  0
 15 38  1  0  0  0  0
 16 39  1  0  0  0  0
 17 18  2  0  0  0  0
 17 29  1  0  0  0  0
 18 19  1  0  0  0  0
 19 20  1  0  0  0  0
 19 26  1  0  0  0  0
 20 21  2  0  0  0  0
 20 25  1  0  0  0  0
 21 22  1  0  0  0  0
 21 40  1  0  0  0  0
 22 23  2  0  0  0  0
 22 41  1  0  0  0  0
 23 24  1  0  0  0  0
 23 42  1  0  0  0  0
 24 25  2  0  0  0  0
 24 43  1  0  0  0  0
 25 44  1  0  0  0  0
 26 27  2  0  0  0  0
 26 28  1  0  0  0  0
 28 29  2  0  0  0  0
 28 45  1  0  0  0  0
 29 30  1  0  0  0  0
 30 46  1  0  0  0  0
M  END
$$$$
