
 OpenBabel01122422423D

 45 48  0  0  0  0  0  0  0  0999 V2000
    1.0835   -0.0675   -0.5780 O   0  0  0  0  0  0  0  0  0  0  0  0
    2.2274    0.0936   -0.1650 C   0  0  0  0  0  0  0  0  0  0  0  0
    2.8073   -0.5892    0.8978 N   0  0  0  0  0  0  0  0  0  0  0  0
    2.1862   -1.6590    1.5960 C   0  0  0  0  0  0  0  0  0  0  0  0
    1.0760   -2.3522    1.1205 C   0  0  0  0  0  0  0  0  0  0  0  0
    0.4964   -3.3687    1.8828 C   0  0  0  0  0  0  0  0  0  0  0  0
    1.0448   -3.6968    3.1155 C   0  0  0  0  0  0  0  0  0  0  0  0
    0.4027   -4.6918    3.8741 N   0  0  0  0  0  0  0  0  0  0  0  0
    0.8511   -5.1472    5.1003 C   0  0  0  0  0  0  0  0  0  0  0  0
    1.9030   -4.8540    5.6580 O   0  0  0  0  0  0  0  0  0  0  0  0
   -0.0382   -6.1183    5.8024 C   0  0  0  0  0  0  0  0  0  0  0  0
    0.5578   -7.0538    6.6631 C   0  0  0  0  0  0  0  0  0  0  0  0
   -0.2426   -7.9169    7.4039 C   0  0  0  0  0  0  0  0  0  0  0  0
    0.2961   -8.8224    8.2694 O   0  0  0  0  0  0  0  0  0  0  0  0
   -1.6274   -7.8682    7.2994 C   0  0  0  0  0  0  0  0  0  0  0  0
   -2.2257   -6.9393    6.4479 C   0  0  0  0  0  0  0  0  0  0  0  0
   -1.4353   -6.0608    5.7001 C   0  0  0  0  0  0  0  0  0  0  0  0
    2.1364   -3.0651    3.5794 N   0  0  0  0  0  0  0  0  0  0  0  0
    2.6846   -2.0789    2.8229 C   0  0  0  0  0  0  0  0  0  0  0  0
    3.0267    1.1585   -0.8143 C   0  0  0  0  0  0  0  0  0  0  0  0
    4.4056    1.1408   -0.8779 C   0  0  0  0  0  0  0  0  0  0  0  0
    5.1428    2.1244   -1.4487 N   0  0  0  0  0  0  0  0  0  0  0  0
    4.5015    3.1751   -2.0178 C   0  0  0  0  0  0  0  0  0  0  0  0
    5.2013    4.2501   -2.5688 C   0  0  0  0  0  0  0  0  0  0  0  0
    6.5445    4.2587   -2.5326 F   0  0  0  0  0  0  0  0  0  0  0  0
    4.5622    5.3475   -3.1493 C   0  0  0  0  0  0  0  0  0  0  0  0
    3.1761    5.3736   -3.2317 C   0  0  0  0  0  0  0  0  0  0  0  0
    2.4417    4.3174   -2.6974 C   0  0  0  0  0  0  0  0  0  0  0  0
    3.0928    3.2394   -2.0660 C   0  0  0  0  0  0  0  0  0  0  0  0
    2.3652    2.2135   -1.4487 C   0  0  0  0  0  0  0  0  0  0  0  0
    3.6526   -0.2173    1.3085 H   0  0  0  0  0  0  0  0  0  0  0  0
    0.6370   -2.1305    0.1532 H   0  0  0  0  0  0  0  0  0  0  0  0
   -0.3787   -3.8807    1.4934 H   0  0  0  0  0  0  0  0  0  0  0  0
   -0.4171   -5.1170    3.4654 H   0  0  0  0  0  0  0  0  0  0  0  0
    1.6407   -7.0814    6.7556 H   0  0  0  0  0  0  0  0  0  0  0  0
    1.2559   -8.6749    8.3192 H   0  0  0  0  0  0  0  0  0  0  0  0
   -2.2386   -8.5383    7.8984 H   0  0  0  0  0  0  0  0  0  0  0  0
   -3.3101   -6.8838    6.3905 H   0  0  0  0  0  0  0  0  0  0  0  0
   -1.9272   -5.3108    5.0881 H   0  0  0  0  0  0  0  0  0  0  0  0
    3.5583   -1.6201    3.2765 H   0  0  0  0  0  0  0  0  0  0  0  0
    4.9950    0.3181   -0.4848 H   0  0  0  0  0  0  0  0  0  0  0  0
    5.1586    6.1705   -3.5311 H   0  0  0  0  0  0  0  0  0  0  0  0
    2.6695    6.2147   -3.6991 H   0  0  0  0  0  0  0  0  0  0  0  0
    1.3550    4.3435   -2.7662 H   0  0  0  0  0  0  0  0  0  0  0  0
    1.2761    2.2419   -1.4439 H   0  0  0  0  0  0  0  0  0  0  0  0
  1  2  2  0  0  0  0
  2  3  1  0  0  0  0
  2 20  1  0  0  0  0
  3  4  1  0  0  0  0
  3 31  1  0  0  0  0
  4  5  2  0  0  0  0
  4 19  1  0  0  0  0
  5  6  1  0  0  0  0
  5 32  1  0  0  0  0
  6  7  2  0  0  0  0
  6 33  1  0  0  0  0
  7  8  1  0  0  0  0
  7 18  1  0  0  0  0
  8  9  1  0  0  0  0
  8 34  1  0  0  0  0
  9 10  2  0  0  0  0
  9 11  1  0  0  0  0
 11 12  2  0  0  0  0
 11 17  1  0  0  0  0
 12 13  1  0  0  0  0
 12 35  1  0  0  0  0
 13 14  1  0  0  0  0
 13 15  2  0  0  0  0
 14 36  1  0  0  0  0
 15 16  1  0  0  0  0
 15 37  1  0  0  0  0
 16 17  2  0  0  0  0
 16 38  1  0  0  0  0
 17 39  1  0  0  0  0
 18 19  2  0  0  0  0
 19 40  1  0  0  0  0
 20 21  2  0  0  0  0
 20 30  1  0  0  0  0
 21 22  1  0  0  0  0
 21 41  1  0  0  0  0
 22 23  2  0  0  0  0
 23 24  1  0  0  0  0
 23 29  1  0  0  0  0
 24 25  1  0  0  0  0
 24 26  2  0  0  0  0
 26 27  1  0  0  0  0
 26 42  1  0  0  0  0
 27 28  2  0  0  0  0
 27 43  1  0  0  0  0
 28 29  1  0  0  0  0
 28 44  1  0  0  0  0
 29 30  2  0  0  0  0
 30 45  1  0  0  0  0
M  END
$$$$
