
 OpenBabel01122422423D

 47 50  0  0  0  0  0  0  0  0999 V2000
    0.9330   -0.3294   -0.1530 O   0  0  0  0  0  0  0  0  0  0  0  0
    2.1499   -0.1939   -0.1273 C   0  0  0  0  0  0  0  0  0  0  0  0
    2.8241    0.7140   -0.9078 N   0  0  0  0  0  0  0  0  0  0  0  0
    2.1393    1.6331   -1.7891 C   0  0  0  0  0  0  0  0  0  0  0  0
    2.5833    1.4249   -3.2117 C   0  0  0  0  0  0  0  0  0  0  0  0
    1.9200    0.5089   -4.0324 C   0  0  0  0  0  0  0  0  0  0  0  0
    2.3572    0.2779   -5.3427 C   0  0  0  0  0  0  0  0  0  0  0  0
    3.4724    0.9494   -5.8756 C   0  0  0  0  0  0  0  0  0  0  0  0
    3.9558    0.6864   -7.2458 C   0  0  0  0  0  0  0  0  0  0  0  0
    3.1327    0.3206   -8.3011 C   0  0  0  0  0  0  0  0  0  0  0  0
    3.5524    0.0656   -9.5624 N   0  0  0  0  0  0  0  0  0  0  0  0
    4.8679    0.1923   -9.7734 C   0  0  0  0  0  0  0  0  0  0  0  0
    5.7772    0.5388   -8.8535 N   0  0  0  0  0  0  0  0  0  0  0  0
    5.2918    0.7714   -7.6130 C   0  0  0  0  0  0  0  0  0  0  0  0
    4.1214    1.8740   -5.0359 C   0  0  0  0  0  0  0  0  0  0  0  0
    3.6930    2.1026   -3.7232 C   0  0  0  0  0  0  0  0  0  0  0  0
    3.0157   -1.0246    0.7777 C   0  0  0  0  0  0  0  0  0  0  0  0
    2.4919   -2.1719    1.2451 C   0  0  0  0  0  0  0  0  0  0  0  0
    3.1466   -2.9578    2.1943 N   0  0  0  0  0  0  0  0  0  0  0  0
    2.5119   -4.1294    2.7119 C   0  0  0  0  0  0  0  0  0  0  0  0
    2.3354   -4.2844    4.0920 C   0  0  0  0  0  0  0  0  0  0  0  0
    1.6617   -5.3993    4.5745 C   0  0  0  0  0  0  0  0  0  0  0  0
    1.4397   -5.5175    5.8919 F   0  0  0  0  0  0  0  0  0  0  0  0
    1.1938   -6.3897    3.7154 C   0  0  0  0  0  0  0  0  0  0  0  0
    1.3913   -6.2528    2.3429 C   0  0  0  0  0  0  0  0  0  0  0  0
    2.0321   -5.1173    1.8420 C   0  0  0  0  0  0  0  0  0  0  0  0
    4.4003   -2.5858    2.7112 C   0  0  0  0  0  0  0  0  0  0  0  0
    5.0564   -3.2064    3.5449 O   0  0  0  0  0  0  0  0  0  0  0  0
    4.9854   -1.3376    2.1530 C   0  0  0  0  0  0  0  0  0  0  0  0
    4.3173   -0.6043    1.2541 C   0  0  0  0  0  0  0  0  0  0  0  0
    3.8312    0.6992   -0.9559 H   0  0  0  0  0  0  0  0  0  0  0  0
    2.3959    2.6467   -1.4600 H   0  0  0  0  0  0  0  0  0  0  0  0
    1.0513    1.5369   -1.7049 H   0  0  0  0  0  0  0  0  0  0  0  0
    1.0600   -0.0408   -3.6516 H   0  0  0  0  0  0  0  0  0  0  0  0
    1.8147   -0.4597   -5.9313 H   0  0  0  0  0  0  0  0  0  0  0  0
    2.0577    0.2219   -8.1746 H   0  0  0  0  0  0  0  0  0  0  0  0
    5.2313   -0.0034  -10.7762 H   0  0  0  0  0  0  0  0  0  0  0  0
    6.0616    1.0288   -6.8902 H   0  0  0  0  0  0  0  0  0  0  0  0
    4.9763    2.4451   -5.3936 H   0  0  0  0  0  0  0  0  0  0  0  0
    4.2350    2.8180   -3.1080 H   0  0  0  0  0  0  0  0  0  0  0  0
    1.4994   -2.5010    0.9487 H   0  0  0  0  0  0  0  0  0  0  0  0
    2.6771   -3.5309    4.7943 H   0  0  0  0  0  0  0  0  0  0  0  0
    0.6814   -7.2540    4.1216 H   0  0  0  0  0  0  0  0  0  0  0  0
    1.0534   -7.0337    1.6643 H   0  0  0  0  0  0  0  0  0  0  0  0
    2.1926   -5.0308    0.7696 H   0  0  0  0  0  0  0  0  0  0  0  0
    5.9615   -1.0578    2.5290 H   0  0  0  0  0  0  0  0  0  0  0  0
    4.7525    0.3226    0.9017 H   0  0  0  0  0  0  0  0  0  0  0  0
  1  2  2  0  0  0  0
  2  3  1  0  0  0  0
  2 17  1  0  0  0  0
  3  4  1  0  0  0  0
  3 31  1  0  0  0  0
  4  5  1  0  0  0  0
  4 32  1  0  0  0  0
  4 33  1  0  0  0  0
  5  6  2  0  0  0  0
  5 16  1  0  0  0  0
  6  7  1  0  0  0  0
  6 34  1  0  0  0  0
  7  8  2  0  0  0  0
  7 35  1  0  0  0  0
  8  9  1  0  0  0  0
  8 15  1  0  0  0  0
  9 10  2  0  0  0  0
  9 14  1  0  0  0  0
 10 11  1  0  0  0  0
 10 36  1  0  0  0  0
 11 12  2  0  0  0  0
 12 13  1  0  0  0  0
 12 37  1  0  0  0  0
 13 14  2  0  0  0  0
 14 38  1  0  0  0  0
 15 16  2  0  0  0  0
 15 39  1  0  0  0  0
 16 40  1  0  0  0  0
 17 18  2  0  0  0  0
 17 30  1  0  0  0  0
 18 19  1  0  0  0  0
 18 41  1  0  0  0  0
 19 20  1  0  0  0  0
 19 27  1  0  0  0  0
 20 21  2  0  0  0  0
 20 26  1  0  0  0  0
 21 22  1  0  0  0  0
 21 42  1  0  0  0  0
 22 23  1  0  0  0  0
 22 24  2  0  0  0  0
 24 25  1  0  0  0  0
 24 43  1  0  0  0  0
 25 26  2  0  0  0  0
 25 44  1  0  0  0  0
 26 45  1  0  0  0  0
 27 28  2  0  0  0  0
 27 29  1  0  0  0  0
 29 30  2  0  0  0  0
 29 46  1  0  0  0  0
 30 47  1  0  0  0  0
M  END
$$$$
