
 OpenBabel01122422423D

 54 57  0  0  0  0  0  0  0  0999 V2000
    5.1276   -9.6007    2.4485 C   0  0  0  0  0  0  0  0  0  0  0  0
    5.0727   -8.1274    2.1687 C   0  0  0  0  0  0  0  0  0  0  0  0
    6.1616   -7.2973    2.4690 C   0  0  0  0  0  0  0  0  0  0  0  0
    6.0942   -5.9231    2.2214 C   0  0  0  0  0  0  0  0  0  0  0  0
    4.9293   -5.3699    1.6941 C   0  0  0  0  0  0  0  0  0  0  0  0
    4.9235   -4.0167    1.4812 O   0  0  0  0  0  0  0  0  0  0  0  0
    3.7581   -3.4192    1.0443 C   0  0  0  0  0  0  0  0  0  0  0  0
    3.7227   -1.9282    0.8356 C   0  0  0  0  0  0  0  0  0  0  0  0
    2.6420   -1.3393    0.9337 O   0  0  0  0  0  0  0  0  0  0  0  0
    4.8888   -1.2242    0.5342 N   0  0  0  0  0  0  0  0  0  0  0  0
    4.7294    0.1929    0.1564 C   0  0  0  0  0  0  0  0  0  0  0  0
    4.5368    1.1955    1.2999 C   0  0  0  0  0  0  0  0  0  0  0  0
    3.6692    0.8360    2.2908 N   0  0  0  0  0  0  0  0  0  0  0  0
    4.9976    2.3340    1.2686 O   0  0  0  0  0  0  0  0  0  0  0  0
    6.2182   -1.8098    0.2950 C   0  0  0  0  0  0  0  0  0  0  0  0
    7.1070   -2.0057    1.5072 C   0  0  0  0  0  0  0  0  0  0  0  0
    6.7251   -1.6659    2.8063 C   0  0  0  0  0  0  0  0  0  0  0  0
    7.5585   -1.9562    3.8963 C   0  0  0  0  0  0  0  0  0  0  0  0
    8.8045   -2.5944    3.7421 C   0  0  0  0  0  0  0  0  0  0  0  0
    9.6334   -2.9366    4.9260 C   0  0  0  0  0  0  0  0  0  0  0  0
    9.0308   -3.3365    6.1364 C   0  0  0  0  0  0  0  0  0  0  0  0
    9.7850   -3.5975    7.2856 C   0  0  0  0  0  0  0  0  0  0  0  0
   11.1689   -3.4873    7.2478 C   0  0  0  0  0  0  0  0  0  0  0  0
   11.7965   -3.1294    6.0569 C   0  0  0  0  0  0  0  0  0  0  0  0
   11.0372   -2.8561    4.9103 C   0  0  0  0  0  0  0  0  0  0  0  0
    9.2018   -2.8863    2.4286 C   0  0  0  0  0  0  0  0  0  0  0  0
    8.3699   -2.5949    1.3335 C   0  0  0  0  0  0  0  0  0  0  0  0
    2.6157   -4.0830    0.8190 C   0  0  0  0  0  0  0  0  0  0  0  0
    2.5970   -5.5512    0.9468 C   0  0  0  0  0  0  0  0  0  0  0  0
    1.5892   -6.1954    0.6818 O   0  0  0  0  0  0  0  0  0  0  0  0
    3.8373   -6.1835    1.4149 C   0  0  0  0  0  0  0  0  0  0  0  0
    3.9104   -7.5640    1.6229 C   0  0  0  0  0  0  0  0  0  0  0  0
    6.0675   -9.8819    2.9347 H   0  0  0  0  0  0  0  0  0  0  0  0
    5.0432  -10.1691    1.5171 H   0  0  0  0  0  0  0  0  0  0  0  0
    4.3094   -9.8829    3.1194 H   0  0  0  0  0  0  0  0  0  0  0  0
    7.0659   -7.7093    2.9095 H   0  0  0  0  0  0  0  0  0  0  0  0
    6.9418   -5.2862    2.4622 H   0  0  0  0  0  0  0  0  0  0  0  0
    3.8582    0.2814   -0.5042 H   0  0  0  0  0  0  0  0  0  0  0  0
    5.6008    0.5212   -0.4204 H   0  0  0  0  0  0  0  0  0  0  0  0
    2.9797    0.1154    2.0802 H   0  0  0  0  0  0  0  0  0  0  0  0
    3.3784    1.5775    2.9142 H   0  0  0  0  0  0  0  0  0  0  0  0
    6.7587   -1.1777   -0.4209 H   0  0  0  0  0  0  0  0  0  0  0  0
    6.0821   -2.7722   -0.2107 H   0  0  0  0  0  0  0  0  0  0  0  0
    5.7711   -1.1869    3.0044 H   0  0  0  0  0  0  0  0  0  0  0  0
    7.2124   -1.6678    4.8859 H   0  0  0  0  0  0  0  0  0  0  0  0
    7.9512   -3.4492    6.2023 H   0  0  0  0  0  0  0  0  0  0  0  0
    9.2842   -3.8788    8.2090 H   0  0  0  0  0  0  0  0  0  0  0  0
   11.7562   -3.6776    8.1426 H   0  0  0  0  0  0  0  0  0  0  0  0
   12.8805   -3.0467    6.0238 H   0  0  0  0  0  0  0  0  0  0  0  0
   11.5641   -2.5549    4.0088 H   0  0  0  0  0  0  0  0  0  0  0  0
   10.1573   -3.3698    2.2366 H   0  0  0  0  0  0  0  0  0  0  0  0
    8.7181   -2.8539    0.3338 H   0  0  0  0  0  0  0  0  0  0  0  0
    1.6870   -3.6098    0.5240 H   0  0  0  0  0  0  0  0  0  0  0  0
    3.0555   -8.1942    1.3828 H   0  0  0  0  0  0  0  0  0  0  0  0
  1  2  1  0  0  0  0
  1 33  1  0  0  0  0
  1 34  1  0  0  0  0
  1 35  1  0  0  0  0
  2  3  2  0  0  0  0
  2 32  1  0  0  0  0
  3  4  1  0  0  0  0
  3 36  1  0  0  0  0
  4  5  2  0  0  0  0
  4 37  1  0  0  0  0
  5  6  1  0  0  0  0
  5 31  1  0  0  0  0
  6  7  1  0  0  0  0
  7  8  1  0  0  0  0
  7 28  2  0  0  0  0
  8  9  2  0  0  0  0
  8 10  1  0  0  0  0
 10 11  1  0  0  0  0
 10 15  1  0  0  0  0
 11 12  1  0  0  0  0
 11 38  1  0  0  0  0
 11 39  1  0  0  0  0
 12 13  1  0  0  0  0
 12 14  2  0  0  0  0
 13 40  1  0  0  0  0
 13 41  1  0  0  0  0
 15 16  1  0  0  0  0
 15 42  1  0  0  0  0
 15 43  1  0  0  0  0
 16 17  2  0  0  0  0
 16 27  1  0  0  0  0
 17 18  1  0  0  0  0
 17 44  1  0  0  0  0
 18 19  2  0  0  0  0
 18 45  1  0  0  0  0
 19 20  1  0  0  0  0
 19 26  1  0  0  0  0
 20 21  2  0  0  0  0
 20 25  1  0  0  0  0
 21 22  1  0  0  0  0
 21 46  1  0  0  0  0
 22 23  2  0  0  0  0
 22 47  1  0  0  0  0
 23 24  1  0  0  0  0
 23 48  1  0  0  0  0
 24 25  2  0  0  0  0
 24 49  1  0  0  0  0
 25 50  1  0  0  0  0
 26 27  2  0  0  0  0
 26 51  1  0  0  0  0
 27 52  1  0  0  0  0
 28 29  1  0  0  0  0
 28 53  1  0  0  0  0
 29 30  2  0  0  0  0
 29 31  1  0  0  0  0
 31 32  2  0  0  0  0
 32 54  1  0  0  0  0
M  END
$$$$
