
 OpenBabel01122422423D

 51 54  0  0  0  0  0  0  0  0999 V2000
    3.8513    3.1533    0.4031 N   0  0  0  0  0  0  0  0  0  0  0  0
    2.8837    2.3484   -0.1221 C   0  0  0  0  0  0  0  0  0  0  0  0
    1.7059    2.6926   -0.0844 O   0  0  0  0  0  0  0  0  0  0  0  0
    3.3355    1.0164   -0.7346 C   0  0  0  0  0  0  0  0  0  0  0  0
    4.7903    0.7679   -0.7459 N   0  0  0  0  0  0  0  0  0  0  0  0
    5.2827   -0.1994    0.2430 C   0  0  0  0  0  0  0  0  0  0  0  0
    5.6424    0.4546    1.5576 C   0  0  0  0  0  0  0  0  0  0  0  0
    4.6859    0.6921    2.5515 C   0  0  0  0  0  0  0  0  0  0  0  0
    5.0220    1.4106    3.7097 C   0  0  0  0  0  0  0  0  0  0  0  0
    6.3237    1.8979    3.9257 C   0  0  0  0  0  0  0  0  0  0  0  0
    6.6702    2.7253    5.1102 C   0  0  0  0  0  0  0  0  0  0  0  0
    6.0373    2.5508    6.3545 C   0  0  0  0  0  0  0  0  0  0  0  0
    6.3616    3.3476    7.4598 C   0  0  0  0  0  0  0  0  0  0  0  0
    7.3372    4.3332    7.3509 C   0  0  0  0  0  0  0  0  0  0  0  0
    7.9808    4.5299    6.1351 C   0  0  0  0  0  0  0  0  0  0  0  0
    7.6444    3.7410    5.0299 C   0  0  0  0  0  0  0  0  0  0  0  0
    7.2838    1.5897    2.9461 C   0  0  0  0  0  0  0  0  0  0  0  0
    6.9497    0.8940    1.7794 C   0  0  0  0  0  0  0  0  0  0  0  0
    5.7175    1.4003   -1.5862 C   0  0  0  0  0  0  0  0  0  0  0  0
    6.9285    1.1855   -1.5137 O   0  0  0  0  0  0  0  0  0  0  0  0
    5.2153    2.4845   -2.5090 C   0  0  0  0  0  0  0  0  0  0  0  0
    5.9354    3.6077   -2.6578 C   0  0  0  0  0  0  0  0  0  0  0  0
    5.2628    4.7749   -3.2256 C   0  0  0  0  0  0  0  0  0  0  0  0
    5.8490    6.0450   -3.1820 C   0  0  0  0  0  0  0  0  0  0  0  0
    5.0968    7.1800   -3.5066 C   0  0  0  0  0  0  0  0  0  0  0  0
    3.7643    7.0551   -3.9003 C   0  0  0  0  0  0  0  0  0  0  0  0
    3.1923    5.7915   -4.0071 C   0  0  0  0  0  0  0  0  0  0  0  0
    3.9435    4.6578   -3.6713 C   0  0  0  0  0  0  0  0  0  0  0  0
    3.3044    3.3299   -3.7482 C   0  0  0  0  0  0  0  0  0  0  0  0
    2.2394    3.1579   -4.3168 O   0  0  0  0  0  0  0  0  0  0  0  0
    3.9585    2.3150   -3.1216 O   0  0  0  0  0  0  0  0  0  0  0  0
    3.5396    3.9623    0.9244 H   0  0  0  0  0  0  0  0  0  0  0  0
    4.7618    2.7732    0.6348 H   0  0  0  0  0  0  0  0  0  0  0  0
    2.9377    0.9242   -1.7470 H   0  0  0  0  0  0  0  0  0  0  0  0
    2.8444    0.2254   -0.1577 H   0  0  0  0  0  0  0  0  0  0  0  0
    6.1562   -0.7245   -0.1614 H   0  0  0  0  0  0  0  0  0  0  0  0
    4.5224   -0.9737    0.4045 H   0  0  0  0  0  0  0  0  0  0  0  0
    3.6599    0.3502    2.4285 H   0  0  0  0  0  0  0  0  0  0  0  0
    4.2326    1.6100    4.4321 H   0  0  0  0  0  0  0  0  0  0  0  0
    5.2825    1.7796    6.4885 H   0  0  0  0  0  0  0  0  0  0  0  0
    5.8517    3.1928    8.4073 H   0  0  0  0  0  0  0  0  0  0  0  0
    7.5944    4.9466    8.2102 H   0  0  0  0  0  0  0  0  0  0  0  0
    8.7425    5.2994    6.0396 H   0  0  0  0  0  0  0  0  0  0  0  0
    8.1538    3.9454    4.0906 H   0  0  0  0  0  0  0  0  0  0  0  0
    8.3201    1.8965    3.0710 H   0  0  0  0  0  0  0  0  0  0  0  0
    7.7220    0.7102    1.0334 H   0  0  0  0  0  0  0  0  0  0  0  0
    6.9235    3.7270   -2.2233 H   0  0  0  0  0  0  0  0  0  0  0  0
    6.8766    6.1742   -2.8495 H   0  0  0  0  0  0  0  0  0  0  0  0
    5.5406    8.1702   -3.4217 H   0  0  0  0  0  0  0  0  0  0  0  0
    3.1674    7.9402   -4.1105 H   0  0  0  0  0  0  0  0  0  0  0  0
    2.1520    5.6900   -4.3138 H   0  0  0  0  0  0  0  0  0  0  0  0
  1  2  1  0  0  0  0
  1 32  1  0  0  0  0
  1 33  1  0  0  0  0
  2  3  2  0  0  0  0
  2  4  1  0  0  0  0
  4  5  1  0  0  0  0
  4 34  1  0  0  0  0
  4 35  1  0  0  0  0
  5  6  1  0  0  0  0
  5 19  1  0  0  0  0
  6  7  1  0  0  0  0
  6 36  1  0  0  0  0
  6 37  1  0  0  0  0
  7  8  2  0  0  0  0
  7 18  1  0  0  0  0
  8  9  1  0  0  0  0
  8 38  1  0  0  0  0
  9 10  2  0  0  0  0
  9 39  1  0  0  0  0
 10 11  1  0  0  0  0
 10 17  1  0  0  0  0
 11 12  2  0  0  0  0
 11 16  1  0  0  0  0
 12 13  1  0  0  0  0
 12 40  1  0  0  0  0
 13 14  2  0  0  0  0
 13 41  1  0  0  0  0
 14 15  1  0  0  0  0
 14 42  1  0  0  0  0
 15 16  2  0  0  0  0
 15 43  1  0  0  0  0
 16 44  1  0  0  0  0
 17 18  2  0  0  0  0
 17 45  1  0  0  0  0
 18 46  1  0  0  0  0
 19 20  2  0  0  0  0
 19 21  1  0  0  0  0
 21 22  2  0  0  0  0
 21 31  1  0  0  0  0
 22 23  1  0  0  0  0
 22 47  1  0  0  0  0
 23 24  2  0  0  0  0
 23 28  1  0  0  0  0
 24 25  1  0  0  0  0
 24 48  1  0  0  0  0
 25 26  2  0  0  0  0
 25 49  1  0  0  0  0
 26 27  1  0  0  0  0
 26 50  1  0  0  0  0
 27 28  2  0  0  0  0
 27 51  1  0  0  0  0
 28 29  1  0  0  0  0
 29 30  2  0  0  0  0
 29 31  1  0  0  0  0
M  END
$$$$
