
 OpenBabel01122422423D

 52 55  0  0  0  0  0  0  0  0999 V2000
   -1.0898    3.3711   -0.2792 N   0  0  0  0  0  0  0  0  0  0  0  0
    0.1207    2.7504   -0.1220 C   0  0  0  0  0  0  0  0  0  0  0  0
    0.3999    1.7396   -0.7526 O   0  0  0  0  0  0  0  0  0  0  0  0
    1.0797    3.3776    0.8252 C   0  0  0  0  0  0  0  0  0  0  0  0
    0.6295    4.1314    1.9140 C   0  0  0  0  0  0  0  0  0  0  0  0
    1.5471    4.7026    2.8013 C   0  0  0  0  0  0  0  0  0  0  0  0
    2.9264    4.5373    2.6083 C   0  0  0  0  0  0  0  0  0  0  0  0
    3.9122    5.1699    3.5681 C   0  0  0  0  0  0  0  0  0  0  0  0
    4.3831    4.0104    4.8845 S   0  0  0  0  0  0  0  0  0  0  0  0
    5.3971    5.0512    5.9404 C   0  0  0  0  0  0  0  0  0  0  0  0
    5.1471    6.3815    5.8202 N   0  0  0  0  0  0  0  0  0  0  0  0
    5.7605    7.2278    6.6769 C   0  0  0  0  0  0  0  0  0  0  0  0
    6.6266    6.8209    7.6711 C   0  0  0  0  0  0  0  0  0  0  0  0
    6.9181    5.4668    7.7624 C   0  0  0  0  0  0  0  0  0  0  0  0
    6.3021    4.5561    6.8884 C   0  0  0  0  0  0  0  0  0  0  0  0
    6.7118    3.1335    7.0394 C   0  0  0  0  0  0  0  0  0  0  0  0
    7.8362    2.8696    7.4460 O   0  0  0  0  0  0  0  0  0  0  0  0
    5.7836    2.1832    6.7093 N   0  0  0  0  0  0  0  0  0  0  0  0
    6.0729    0.7821    6.8312 C   0  0  0  0  0  0  0  0  0  0  0  0
    5.7111    0.2672    8.1786 C   0  0  0  0  0  0  0  0  0  0  0  0
    5.8934   -1.0244    8.6392 C   0  0  0  0  0  0  0  0  0  0  0  0
    6.4649   -2.2261    8.0583 C   0  0  0  0  0  0  0  0  0  0  0  0
    7.5453   -2.1181    7.1648 C   0  0  0  0  0  0  0  0  0  0  0  0
    8.0432   -3.2276    6.4928 C   0  0  0  0  0  0  0  0  0  0  0  0
    7.4948   -4.4796    6.7360 C   0  0  0  0  0  0  0  0  0  0  0  0
    6.4493   -4.6160    7.6515 C   0  0  0  0  0  0  0  0  0  0  0  0
    5.9336   -3.4941    8.3098 C   0  0  0  0  0  0  0  0  0  0  0  0
    5.4136   -1.0838    9.9195 O   0  0  0  0  0  0  0  0  0  0  0  0
    4.9951    0.1895   10.1685 C   0  0  0  0  0  0  0  0  0  0  0  0
    5.1133    1.0284    9.1652 N   0  0  0  0  0  0  0  0  0  0  0  0
    3.3696    3.7569    1.5294 C   0  0  0  0  0  0  0  0  0  0  0  0
    2.4525    3.1768    0.6449 C   0  0  0  0  0  0  0  0  0  0  0  0
   -1.7230    2.9751   -0.9624 H   0  0  0  0  0  0  0  0  0  0  0  0
   -1.2599    4.3175    0.0289 H   0  0  0  0  0  0  0  0  0  0  0  0
   -0.4324    4.2576    2.1038 H   0  0  0  0  0  0  0  0  0  0  0  0
    1.1733    5.2712    3.6507 H   0  0  0  0  0  0  0  0  0  0  0  0
    3.4613    6.0752    3.9893 H   0  0  0  0  0  0  0  0  0  0  0  0
    4.8130    5.4740    3.0239 H   0  0  0  0  0  0  0  0  0  0  0  0
    5.5101    8.2769    6.5471 H   0  0  0  0  0  0  0  0  0  0  0  0
    7.0631    7.5364    8.3596 H   0  0  0  0  0  0  0  0  0  0  0  0
    7.6077    5.1148    8.5269 H   0  0  0  0  0  0  0  0  0  0  0  0
    4.8445    2.4440    6.4463 H   0  0  0  0  0  0  0  0  0  0  0  0
    7.1368    0.6471    6.6356 H   0  0  0  0  0  0  0  0  0  0  0  0
    5.5084    0.2529    6.0569 H   0  0  0  0  0  0  0  0  0  0  0  0
    8.0211   -1.1629    6.9760 H   0  0  0  0  0  0  0  0  0  0  0  0
    8.8597   -3.1062    5.7851 H   0  0  0  0  0  0  0  0  0  0  0  0
    7.8859   -5.3503    6.2154 H   0  0  0  0  0  0  0  0  0  0  0  0
    6.0268   -5.5975    7.8431 H   0  0  0  0  0  0  0  0  0  0  0  0
    5.1018   -3.6172    8.9996 H   0  0  0  0  0  0  0  0  0  0  0  0
    4.6082    0.3881   11.1580 H   0  0  0  0  0  0  0  0  0  0  0  0
    4.4342    3.5909    1.3739 H   0  0  0  0  0  0  0  0  0  0  0  0
    2.8116    2.5707   -0.1848 H   0  0  0  0  0  0  0  0  0  0  0  0
  1  2  1  0  0  0  0
  1 33  1  0  0  0  0
  1 34  1  0  0  0  0
  2  3  2  0  0  0  0
  2  4  1  0  0  0  0
  4  5  2  0  0  0  0
  4 32  1  0  0  0  0
  5  6  1  0  0  0  0
  5 35  1  0  0  0  0
  6  7  2  0  0  0  0
  6 36  1  0  0  0  0
  7  8  1  0  0  0  0
  7 31  1  0  0  0  0
  8  9  1  0  0  0  0
  8 37  1  0  0  0  0
  8 38  1  0  0  0  0
  9 10  1  0  0  0  0
 10 11  2  0  0  0  0
 10 15  1  0  0  0  0
 11 12  1  0  0  0  0
 12 13  2  0  0  0  0
 12 39  1  0  0  0  0
 13 14  1  0  0  0  0
 13 40  1  0  0  0  0
 14 15  2  0  0  0  0
 14 41  1  0  0  0  0
 15 16  1  0  0  0  0
 16 17  2  0  0  0  0
 16 18  1  0  0  0  0
 18 19  1  0  0  0  0
 18 42  1  0  0  0  0
 19 20  1  0  0  0  0
 19 43  1  0  0  0  0
 19 44  1  0  0  0  0
 20 21  2  0  0  0  0
 20 30  1  0  0  0  0
 21 22  1  0  0  0  0
 21 28  1  0  0  0  0
 22 23  2  0  0  0  0
 22 27  1  0  0  0  0
 23 24  1  0  0  0  0
 23 45  1  0  0  0  0
 24 25  2  0  0  0  0
 24 46  1  0  0  0  0
 25 26  1  0  0  0  0
 25 47  1  0  0  0  0
 26 27  2  0  0  0  0
 26 48  1  0  0  0  0
 27 49  1  0  0  0  0
 28 29  1  0  0  0  0
 29 30  2  0  0  0  0
 29 50  1  0  0  0  0
 31 32  2  0  0  0  0
 31 51  1  0  0  0  0
 32 52  1  0  0  0  0
M  END
$$$$
