
 OpenBabel01122422353D

 45 48  0  0  0  0  0  0  0  0999 V2000
    7.2854   -3.7794    2.8112 N   0  0  0  0  0  0  0  0  0  0  0  0
    6.5906   -3.4985    1.9212 C   0  0  0  0  0  0  0  0  0  0  0  0
    5.7304   -3.1505    0.8303 C   0  0  0  0  0  0  0  0  0  0  0  0
    4.3494   -3.0331    1.0365 C   0  0  0  0  0  0  0  0  0  0  0  0
    3.4974   -2.6699   -0.0176 C   0  0  0  0  0  0  0  0  0  0  0  0
    2.0152   -2.4990    0.2242 C   0  0  0  0  0  0  0  0  0  0  0  0
    1.1986   -3.7260   -0.0429 C   0  0  0  0  0  0  0  0  0  0  0  0
    0.6207   -4.1231   -1.2316 C   0  0  0  0  0  0  0  0  0  0  0  0
   -0.1984   -5.2270   -1.1545 N   0  0  0  0  0  0  0  0  0  0  0  0
   -0.2349   -5.6696    0.0751 C   0  0  0  0  0  0  0  0  0  0  0  0
   -0.9948   -6.6990    0.5675 N   0  0  0  0  0  0  0  0  0  0  0  0
   -2.0795   -7.1510   -0.1601 C   0  0  0  0  0  0  0  0  0  0  0  0
   -2.5356   -6.6807   -1.1920 O   0  0  0  0  0  0  0  0  0  0  0  0
   -2.8352   -8.3063    0.4685 C   0  0  0  0  0  0  0  0  0  0  0  0
   -2.8782   -8.3593    1.7761 N   0  0  0  0  0  0  0  0  0  0  0  0
   -3.5946   -9.3900    2.3531 N   0  0  0  0  0  0  0  0  0  0  0  0
   -3.7079   -9.3434    3.7789 C   0  0  0  0  0  0  0  0  0  0  0  0
   -3.8396  -10.5150    4.5436 C   0  0  0  0  0  0  0  0  0  0  0  0
   -3.9996  -10.4453    5.9242 C   0  0  0  0  0  0  0  0  0  0  0  0
   -4.1231  -11.5788    6.6274 F   0  0  0  0  0  0  0  0  0  0  0  0
   -4.0358   -9.2245    6.5825 C   0  0  0  0  0  0  0  0  0  0  0  0
   -3.8952   -8.0507    5.8483 C   0  0  0  0  0  0  0  0  0  0  0  0
   -3.7229   -8.1119    4.4607 C   0  0  0  0  0  0  0  0  0  0  0  0
   -4.3004  -10.3139    1.6052 C   0  0  0  0  0  0  0  0  0  0  0  0
   -4.3407  -10.3543    0.2759 C   0  0  0  0  0  0  0  0  0  0  0  0
   -3.5410   -9.3326   -0.4032 C   0  0  0  0  0  0  0  0  0  0  0  0
   -3.4422   -9.3377   -1.6193 O   0  0  0  0  0  0  0  0  0  0  0  0
    0.7660   -4.8501    1.1926 S   0  0  0  0  0  0  0  0  0  0  0  0
    4.0502   -2.4465   -1.2881 C   0  0  0  0  0  0  0  0  0  0  0  0
    5.4267   -2.5668   -1.4967 C   0  0  0  0  0  0  0  0  0  0  0  0
    6.2668   -2.9149   -0.4388 C   0  0  0  0  0  0  0  0  0  0  0  0
    3.9362   -3.2106    2.0287 H   0  0  0  0  0  0  0  0  0  0  0  0
    1.6502   -1.6842   -0.4182 H   0  0  0  0  0  0  0  0  0  0  0  0
    1.8484   -2.1405    1.2474 H   0  0  0  0  0  0  0  0  0  0  0  0
    0.7294   -3.6217   -2.1851 H   0  0  0  0  0  0  0  0  0  0  0  0
   -0.8526   -7.0139    1.5182 H   0  0  0  0  0  0  0  0  0  0  0  0
   -3.7996  -11.4983    4.0867 H   0  0  0  0  0  0  0  0  0  0  0  0
   -4.1715   -9.1973    7.6588 H   0  0  0  0  0  0  0  0  0  0  0  0
   -3.9291   -7.0867    6.3492 H   0  0  0  0  0  0  0  0  0  0  0  0
   -3.6409   -7.1820    3.9021 H   0  0  0  0  0  0  0  0  0  0  0  0
   -4.8900  -11.0292    2.1709 H   0  0  0  0  0  0  0  0  0  0  0  0
   -4.9084  -11.0647   -0.3057 H   0  0  0  0  0  0  0  0  0  0  0  0
    3.4148   -2.1637   -2.1256 H   0  0  0  0  0  0  0  0  0  0  0  0
    5.8450   -2.3834   -2.4839 H   0  0  0  0  0  0  0  0  0  0  0  0
    7.3383   -2.9977   -0.6111 H   0  0  0  0  0  0  0  0  0  0  0  0
  1  2  3  0  0  0  0
  2  3  1  0  0  0  0
  3  4  2  0  0  0  0
  3 31  1  0  0  0  0
  4  5  1  0  0  0  0
  4 32  1  0  0  0  0
  5  6  1  0  0  0  0
  5 29  2  0  0  0  0
  6  7  1  0  0  0  0
  6 33  1  0  0  0  0
  6 34  1  0  0  0  0
  7  8  2  0  0  0  0
  7 28  1  0  0  0  0
  8  9  1  0  0  0  0
  8 35  1  0  0  0  0
  9 10  2  0  0  0  0
 10 11  1  0  0  0  0
 10 28  1  0  0  0  0
 11 12  1  0  0  0  0
 11 36  1  0  0  0  0
 12 13  2  0  0  0  0
 12 14  1  0  0  0  0
 14 15  2  0  0  0  0
 14 26  1  0  0  0  0
 15 16  1  0  0  0  0
 16 17  1  0  0  0  0
 16 24  1  0  0  0  0
 17 18  2  0  0  0  0
 17 23  1  0  0  0  0
 18 19  1  0  0  0  0
 18 37  1  0  0  0  0
 19 20  1  0  0  0  0
 19 21  2  0  0  0  0
 21 22  1  0  0  0  0
 21 38  1  0  0  0  0
 22 23  2  0  0  0  0
 22 39  1  0  0  0  0
 23 40  1  0  0  0  0
 24 25  2  0  0  0  0
 24 41  1  0  0  0  0
 25 26  1  0  0  0  0
 25 42  1  0  0  0  0
 26 27  2  0  0  0  0
 29 30  1  0  0  0  0
 29 43  1  0  0  0  0
 30 31  2  0  0  0  0
 30 44  1  0  0  0  0
 31 45  1  0  0  0  0
M  END
$$$$
