
 OpenBabel01122422423D

 44 47  0  0  0  0  0  0  0  0999 V2000
    0.8804   -0.2075   -0.0607 O   0  0  0  0  0  0  0  0  0  0  0  0
    2.0975   -0.0272   -0.0330 C   0  0  0  0  0  0  0  0  0  0  0  0
    2.7749    0.8834    0.7606 N   0  0  0  0  0  0  0  0  0  0  0  0
    2.1946    1.7023    1.7507 C   0  0  0  0  0  0  0  0  0  0  0  0
    0.8809    1.5334    2.1922 C   0  0  0  0  0  0  0  0  0  0  0  0
    0.3272    2.3829    3.1506 C   0  0  0  0  0  0  0  0  0  0  0  0
    1.0746    3.4242    3.7045 C   0  0  0  0  0  0  0  0  0  0  0  0
    0.4491    4.3200    4.6748 C   0  0  0  0  0  0  0  0  0  0  0  0
   -0.5102    4.0383    5.5754 C   0  0  0  0  0  0  0  0  0  0  0  0
   -0.8369    5.1873    6.2475 N   0  0  0  0  0  0  0  0  0  0  0  0
   -0.0629    6.2440    5.7541 C   0  0  0  0  0  0  0  0  0  0  0  0
   -0.0949    7.4112    6.0952 O   0  0  0  0  0  0  0  0  0  0  0  0
    0.7457    5.6582    4.7747 N   0  0  0  0  0  0  0  0  0  0  0  0
    2.4015    3.5832    3.2808 C   0  0  0  0  0  0  0  0  0  0  0  0
    2.9613    2.7211    2.3216 C   0  0  0  0  0  0  0  0  0  0  0  0
    2.9487   -0.8671   -0.9224 C   0  0  0  0  0  0  0  0  0  0  0  0
    2.3684   -1.9839   -1.5179 C   0  0  0  0  0  0  0  0  0  0  0  0
    3.1653   -2.8142   -2.2933 C   0  0  0  0  0  0  0  0  0  0  0  0
    4.5213   -2.5234   -2.4214 C   0  0  0  0  0  0  0  0  0  0  0  0
    5.4078   -3.3094   -3.1149 O   0  0  0  0  0  0  0  0  0  0  0  0
    5.2914   -4.6817   -3.0244 C   0  0  0  0  0  0  0  0  0  0  0  0
    4.8566   -5.3610   -1.8828 C   0  0  0  0  0  0  0  0  0  0  0  0
    4.7524   -6.7472   -1.9101 C   0  0  0  0  0  0  0  0  0  0  0  0
    4.2846   -7.3914   -0.8328 F   0  0  0  0  0  0  0  0  0  0  0  0
    5.1194   -7.4746   -3.0360 C   0  0  0  0  0  0  0  0  0  0  0  0
    5.6053   -6.8037   -4.1569 C   0  0  0  0  0  0  0  0  0  0  0  0
    5.6912   -5.4083   -4.1503 C   0  0  0  0  0  0  0  0  0  0  0  0
    5.0003   -1.3508   -1.8407 C   0  0  0  0  0  0  0  0  0  0  0  0
    4.2544   -0.5150   -1.0712 N   0  0  0  0  0  0  0  0  0  0  0  0
    3.7685    0.9749    0.5663 H   0  0  0  0  0  0  0  0  0  0  0  0
    0.2465    0.7375    1.8172 H   0  0  0  0  0  0  0  0  0  0  0  0
   -0.7095    2.2202    3.4364 H   0  0  0  0  0  0  0  0  0  0  0  0
   -1.0010    3.1005    5.7856 H   0  0  0  0  0  0  0  0  0  0  0  0
   -1.5384    5.2968    6.9639 H   0  0  0  0  0  0  0  0  0  0  0  0
    1.3862    6.1802    4.1995 H   0  0  0  0  0  0  0  0  0  0  0  0
    3.0207    4.3749    3.6971 H   0  0  0  0  0  0  0  0  0  0  0  0
    3.9935    2.8761    2.0170 H   0  0  0  0  0  0  0  0  0  0  0  0
    1.3195   -2.2195   -1.3583 H   0  0  0  0  0  0  0  0  0  0  0  0
    2.7244   -3.6911   -2.7591 H   0  0  0  0  0  0  0  0  0  0  0  0
    4.5807   -4.8404   -0.9723 H   0  0  0  0  0  0  0  0  0  0  0  0
    5.0311   -8.5565   -3.0283 H   0  0  0  0  0  0  0  0  0  0  0  0
    5.9132   -7.3647   -5.0357 H   0  0  0  0  0  0  0  0  0  0  0  0
    6.0658   -4.8876   -5.0284 H   0  0  0  0  0  0  0  0  0  0  0  0
    6.0371   -1.0531   -1.9767 H   0  0  0  0  0  0  0  0  0  0  0  0
  1  2  2  0  0  0  0
  2  3  1  0  0  0  0
  2 16  1  0  0  0  0
  3  4  1  0  0  0  0
  3 30  1  0  0  0  0
  4  5  2  0  0  0  0
  4 15  1  0  0  0  0
  5  6  1  0  0  0  0
  5 31  1  0  0  0  0
  6  7  2  0  0  0  0
  6 32  1  0  0  0  0
  7  8  1  0  0  0  0
  7 14  1  0  0  0  0
  8  9  2  0  0  0  0
  8 13  1  0  0  0  0
  9 10  1  0  0  0  0
  9 33  1  0  0  0  0
 10 11  1  0  0  0  0
 10 34  1  0  0  0  0
 11 12  2  0  0  0  0
 11 13  1  0  0  0  0
 13 35  1  0  0  0  0
 14 15  2  0  0  0  0
 14 36  1  0  0  0  0
 15 37  1  0  0  0  0
 16 17  2  0  0  0  0
 16 29  1  0  0  0  0
 17 18  1  0  0  0  0
 17 38  1  0  0  0  0
 18 19  2  0  0  0  0
 18 39  1  0  0  0  0
 19 20  1  0  0  0  0
 19 28  1  0  0  0  0
 20 21  1  0  0  0  0
 21 22  2  0  0  0  0
 21 27  1  0  0  0  0
 22 23  1  0  0  0  0
 22 40  1  0  0  0  0
 23 24  1  0  0  0  0
 23 25  2  0  0  0  0
 25 26  1  0  0  0  0
 25 41  1  0  0  0  0
 26 27  2  0  0  0  0
 26 42  1  0  0  0  0
 27 43  1  0  0  0  0
 28 29  2  0  0  0  0
 28 44  1  0  0  0  0
M  END
$$$$
