
 OpenBabel01122422423D

 48 51  0  0  0  0  0  0  0  0999 V2000
    1.0692   -0.1898   -0.1510 O   0  0  0  0  0  0  0  0  0  0  0  0
    2.1709    0.2495    0.1668 C   0  0  0  0  0  0  0  0  0  0  0  0
    2.7058    1.4559   -0.2441 N   0  0  0  0  0  0  0  0  0  0  0  0
    2.1135    2.3889   -1.1103 C   0  0  0  0  0  0  0  0  0  0  0  0
    0.7607    2.3658   -1.4375 C   0  0  0  0  0  0  0  0  0  0  0  0
    0.2351    3.2818   -2.3497 C   0  0  0  0  0  0  0  0  0  0  0  0
    1.0547    4.2393   -2.9562 C   0  0  0  0  0  0  0  0  0  0  0  0
    0.5000    5.1578   -3.9436 C   0  0  0  0  0  0  0  0  0  0  0  0
   -0.7517    5.6387   -4.0366 C   0  0  0  0  0  0  0  0  0  0  0  0
   -0.8325    6.4464   -5.1406 N   0  0  0  0  0  0  0  0  0  0  0  0
    0.4084    6.4672   -5.7829 C   0  0  0  0  0  0  0  0  0  0  0  0
    0.7013    7.0648   -6.7946 O   0  0  0  0  0  0  0  0  0  0  0  0
    1.2249    5.6532   -5.0062 N   0  0  0  0  0  0  0  0  0  0  0  0
    2.4100    4.2776   -2.6058 C   0  0  0  0  0  0  0  0  0  0  0  0
    2.9329    3.3698   -1.6767 C   0  0  0  0  0  0  0  0  0  0  0  0
    3.0645   -0.6153    1.0025 C   0  0  0  0  0  0  0  0  0  0  0  0
    2.6496   -1.9426    1.2199 C   0  0  0  0  0  0  0  0  0  0  0  0
    3.4729   -2.8631    1.8855 C   0  0  0  0  0  0  0  0  0  0  0  0
    3.0599   -4.3133    2.0105 C   0  0  0  0  0  0  0  0  0  0  0  0
    2.2914   -4.6400    3.2676 C   0  0  0  0  0  0  0  0  0  0  0  0
    0.8902   -4.5885    3.2778 C   0  0  0  0  0  0  0  0  0  0  0  0
    0.1792   -4.8554    4.4493 C   0  0  0  0  0  0  0  0  0  0  0  0
    0.8598   -5.1829    5.6201 C   0  0  0  0  0  0  0  0  0  0  0  0
    2.2512   -5.2583    5.6174 C   0  0  0  0  0  0  0  0  0  0  0  0
    2.9643   -4.9872    4.4481 C   0  0  0  0  0  0  0  0  0  0  0  0
    4.6997   -2.4194    2.3929 C   0  0  0  0  0  0  0  0  0  0  0  0
    5.1074   -1.0949    2.2251 C   0  0  0  0  0  0  0  0  0  0  0  0
    4.2942   -0.1978    1.5278 C   0  0  0  0  0  0  0  0  0  0  0  0
    4.7344    1.0901    1.3606 O   0  0  0  0  0  0  0  0  0  0  0  0
    3.6670    1.6330    0.0381 H   0  0  0  0  0  0  0  0  0  0  0  0
    0.0813    1.6455   -0.9928 H   0  0  0  0  0  0  0  0  0  0  0  0
   -0.8225    3.2102   -2.5897 H   0  0  0  0  0  0  0  0  0  0  0  0
   -1.6000    5.4703   -3.3930 H   0  0  0  0  0  0  0  0  0  0  0  0
   -1.6402    6.9434   -5.4738 H   0  0  0  0  0  0  0  0  0  0  0  0
    2.1793    5.4368   -5.2378 H   0  0  0  0  0  0  0  0  0  0  0  0
    3.0773    5.0142   -3.0473 H   0  0  0  0  0  0  0  0  0  0  0  0
    3.9917    3.4185   -1.4345 H   0  0  0  0  0  0  0  0  0  0  0  0
    1.6850   -2.2713    0.8331 H   0  0  0  0  0  0  0  0  0  0  0  0
    3.9540   -4.9483    1.9524 H   0  0  0  0  0  0  0  0  0  0  0  0
    2.4664   -4.5994    1.1314 H   0  0  0  0  0  0  0  0  0  0  0  0
    0.3422   -4.3377    2.3721 H   0  0  0  0  0  0  0  0  0  0  0  0
   -0.9064   -4.8015    4.4485 H   0  0  0  0  0  0  0  0  0  0  0  0
    0.3056   -5.3781    6.5343 H   0  0  0  0  0  0  0  0  0  0  0  0
    2.7814   -5.5232    6.5284 H   0  0  0  0  0  0  0  0  0  0  0  0
    4.0497   -5.0483    4.4646 H   0  0  0  0  0  0  0  0  0  0  0  0
    5.3585   -3.1141    2.9112 H   0  0  0  0  0  0  0  0  0  0  0  0
    6.0746   -0.7882    2.6107 H   0  0  0  0  0  0  0  0  0  0  0  0
    5.4095    1.2734    2.0390 H   0  0  0  0  0  0  0  0  0  0  0  0
  1  2  2  0  0  0  0
  2  3  1  0  0  0  0
  2 16  1  0  0  0  0
  3  4  1  0  0  0  0
  3 30  1  0  0  0  0
  4  5  2  0  0  0  0
  4 15  1  0  0  0  0
  5  6  1  0  0  0  0
  5 31  1  0  0  0  0
  6  7  2  0  0  0  0
  6 32  1  0  0  0  0
  7  8  1  0  0  0  0
  7 14  1  0  0  0  0
  8  9  2  0  0  0  0
  8 13  1  0  0  0  0
  9 10  1  0  0  0  0
  9 33  1  0  0  0  0
 10 11  1  0  0  0  0
 10 34  1  0  0  0  0
 11 12  2  0  0  0  0
 11 13  1  0  0  0  0
 13 35  1  0  0  0  0
 14 15  2  0  0  0  0
 14 36  1  0  0  0  0
 15 37  1  0  0  0  0
 16 17  2  0  0  0  0
 16 28  1  0  0  0  0
 17 18  1  0  0  0  0
 17 38  1  0  0  0  0
 18 19  1  0  0  0  0
 18 26  2  0  0  0  0
 19 20  1  0  0  0  0
 19 39  1  0  0  0  0
 19 40  1  0  0  0  0
 20 21  2  0  0  0  0
 20 25  1  0  0  0  0
 21 22  1  0  0  0  0
 21 41  1  0  0  0  0
 22 23  2  0  0  0  0
 22 42  1  0  0  0  0
 23 24  1  0  0  0  0
 23 43  1  0  0  0  0
 24 25  2  0  0  0  0
 24 44  1  0  0  0  0
 25 45  1  0  0  0  0
 26 27  1  0  0  0  0
 26 46  1  0  0  0  0
 27 28  2  0  0  0  0
 27 47  1  0  0  0  0
 28 29  1  0  0  0  0
 29 48  1  0  0  0  0
M  END
$$$$
