
 OpenBabel01122422423D

 54 57  0  0  0  0  0  0  0  0999 V2000
    3.1494    3.1999   -1.1600 N   0  0  0  0  0  0  0  0  0  0  0  0
    2.5924    2.0672   -0.6174 C   0  0  0  0  0  0  0  0  0  0  0  0
    1.4800    1.6851   -0.9717 O   0  0  0  0  0  0  0  0  0  0  0  0
    3.3842    1.4202    0.5123 C   0  0  0  0  0  0  0  0  0  0  0  0
    4.7844    1.1524    0.1490 N   0  0  0  0  0  0  0  0  0  0  0  0
    5.0606   -0.2556   -0.2139 C   0  0  0  0  0  0  0  0  0  0  0  0
    6.1400   -0.5457   -1.2317 C   0  0  0  0  0  0  0  0  0  0  0  0
    6.8827   -1.7368   -1.1624 C   0  0  0  0  0  0  0  0  0  0  0  0
    7.8922   -2.0183   -2.0987 C   0  0  0  0  0  0  0  0  0  0  0  0
    8.1870   -1.1198   -3.1411 C   0  0  0  0  0  0  0  0  0  0  0  0
    9.1476   -1.4205   -4.2312 C   0  0  0  0  0  0  0  0  0  0  0  0
    9.3038   -2.7213   -4.7426 C   0  0  0  0  0  0  0  0  0  0  0  0
   10.0508   -2.9625   -5.9029 C   0  0  0  0  0  0  0  0  0  0  0  0
   10.6596   -1.9093   -6.5779 C   0  0  0  0  0  0  0  0  0  0  0  0
   10.5636   -0.6205   -6.0673 C   0  0  0  0  0  0  0  0  0  0  0  0
    9.8378   -0.3863   -4.8966 C   0  0  0  0  0  0  0  0  0  0  0  0
    7.4458    0.0750   -3.1745 C   0  0  0  0  0  0  0  0  0  0  0  0
    6.4190    0.3448   -2.2705 C   0  0  0  0  0  0  0  0  0  0  0  0
    5.6963    2.1635    0.4685 C   0  0  0  0  0  0  0  0  0  0  0  0
    5.2950    3.2950    0.7621 O   0  0  0  0  0  0  0  0  0  0  0  0
    7.1930    1.8902    0.3322 C   0  0  0  0  0  0  0  0  0  0  0  0
    8.0475    2.2562    1.4695 N   0  0  0  0  0  0  0  0  0  0  0  0
    9.3759    2.4508    1.0380 N   0  0  0  0  0  0  0  0  0  0  0  0
   10.1592    1.4142    1.0744 C   0  0  0  0  0  0  0  0  0  0  0  0
    9.7264    0.1161    1.5795 C   0  0  0  0  0  0  0  0  0  0  0  0
   10.3038   -1.0734    1.1495 C   0  0  0  0  0  0  0  0  0  0  0  0
    9.7708   -2.2810    1.6071 C   0  0  0  0  0  0  0  0  0  0  0  0
    8.7088   -2.2877    2.5208 C   0  0  0  0  0  0  0  0  0  0  0  0
    8.1352   -1.0928    2.9446 C   0  0  0  0  0  0  0  0  0  0  0  0
    8.6292    0.1125    2.4339 C   0  0  0  0  0  0  0  0  0  0  0  0
    7.8308    1.3529    2.5350 C   0  0  0  0  0  0  0  0  0  0  0  0
    6.8876    1.4131    3.3154 O   0  0  0  0  0  0  0  0  0  0  0  0
    2.5679    3.7459   -1.7808 H   0  0  0  0  0  0  0  0  0  0  0  0
    3.8806    3.6787   -0.6387 H   0  0  0  0  0  0  0  0  0  0  0  0
    2.8928    0.4823    0.7982 H   0  0  0  0  0  0  0  0  0  0  0  0
    3.3363    2.0821    1.3840 H   0  0  0  0  0  0  0  0  0  0  0  0
    4.1397   -0.6700   -0.6491 H   0  0  0  0  0  0  0  0  0  0  0  0
    5.2577   -0.7897    0.7231 H   0  0  0  0  0  0  0  0  0  0  0  0
    6.6800   -2.4641   -0.3801 H   0  0  0  0  0  0  0  0  0  0  0  0
    8.4327   -2.9590   -2.0117 H   0  0  0  0  0  0  0  0  0  0  0  0
    8.7972   -3.5651   -4.2791 H   0  0  0  0  0  0  0  0  0  0  0  0
   10.1258   -3.9725   -6.2989 H   0  0  0  0  0  0  0  0  0  0  0  0
   11.1987   -2.0890   -7.5037 H   0  0  0  0  0  0  0  0  0  0  0  0
   11.0301    0.2110   -6.5895 H   0  0  0  0  0  0  0  0  0  0  0  0
    9.7852    0.6369   -4.5319 H   0  0  0  0  0  0  0  0  0  0  0  0
    7.6278    0.8149   -3.9523 H   0  0  0  0  0  0  0  0  0  0  0  0
    5.8641    1.2742   -2.3712 H   0  0  0  0  0  0  0  0  0  0  0  0
    7.5387    2.4306   -0.5593 H   0  0  0  0  0  0  0  0  0  0  0  0
    7.3744    0.8354    0.1781 H   0  0  0  0  0  0  0  0  0  0  0  0
   11.1885    1.5119    0.6896 H   0  0  0  0  0  0  0  0  0  0  0  0
   11.1079   -1.0749    0.4179 H   0  0  0  0  0  0  0  0  0  0  0  0
   10.1671   -3.2233    1.2359 H   0  0  0  0  0  0  0  0  0  0  0  0
    8.2984   -3.2328    2.8709 H   0  0  0  0  0  0  0  0  0  0  0  0
    7.2707   -1.0916    3.6015 H   0  0  0  0  0  0  0  0  0  0  0  0
  1  2  1  0  0  0  0
  1 33  1  0  0  0  0
  1 34  1  0  0  0  0
  2  3  2  0  0  0  0
  2  4  1  0  0  0  0
  4  5  1  0  0  0  0
  4 35  1  0  0  0  0
  4 36  1  0  0  0  0
  5  6  1  0  0  0  0
  5 19  1  0  0  0  0
  6  7  1  0  0  0  0
  6 37  1  0  0  0  0
  6 38  1  0  0  0  0
  7  8  2  0  0  0  0
  7 18  1  0  0  0  0
  8  9  1  0  0  0  0
  8 39  1  0  0  0  0
  9 10  2  0  0  0  0
  9 40  1  0  0  0  0
 10 11  1  0  0  0  0
 10 17  1  0  0  0  0
 11 12  2  0  0  0  0
 11 16  1  0  0  0  0
 12 13  1  0  0  0  0
 12 41  1  0  0  0  0
 13 14  2  0  0  0  0
 13 42  1  0  0  0  0
 14 15  1  0  0  0  0
 14 43  1  0  0  0  0
 15 16  2  0  0  0  0
 15 44  1  0  0  0  0
 16 45  1  0  0  0  0
 17 18  2  0  0  0  0
 17 46  1  0  0  0  0
 18 47  1  0  0  0  0
 19 20  2  0  0  0  0
 19 21  1  0  0  0  0
 21 22  1  0  0  0  0
 21 48  1  0  0  0  0
 21 49  1  0  0  0  0
 22 23  1  0  0  0  0
 22 31  1  0  0  0  0
 23 24  2  0  0  0  0
 24 25  1  0  0  0  0
 24 50  1  0  0  0  0
 25 26  2  0  0  0  0
 25 30  1  0  0  0  0
 26 27  1  0  0  0  0
 26 51  1  0  0  0  0
 27 28  2  0  0  0  0
 27 52  1  0  0  0  0
 28 29  1  0  0  0  0
 28 53  1  0  0  0  0
 29 30  2  0  0  0  0
 29 54  1  0  0  0  0
 30 31  1  0  0  0  0
 31 32  2  0  0  0  0
M  END
$$$$
