
 OpenBabel01122422423D

 40 43  0  0  0  0  0  0  0  0999 V2000
    1.0276    0.2417    0.2187 O   0  0  0  0  0  0  0  0  0  0  0  0
    2.2031    0.0165   -0.0474 C   0  0  0  0  0  0  0  0  0  0  0  0
    2.8175    0.1746   -1.2647 N   0  0  0  0  0  0  0  0  0  0  0  0
    2.1834    0.6326   -2.4065 C   0  0  0  0  0  0  0  0  0  0  0  0
    2.8524    0.4669   -3.5591 N   0  0  0  0  0  0  0  0  0  0  0  0
    2.2305    0.8542   -4.7007 C   0  0  0  0  0  0  0  0  0  0  0  0
    2.9668    0.6132   -5.9605 C   0  0  0  0  0  0  0  0  0  0  0  0
    3.8503   -0.4740   -6.0892 C   0  0  0  0  0  0  0  0  0  0  0  0
    4.5266   -0.7109   -7.2866 C   0  0  0  0  0  0  0  0  0  0  0  0
    5.3526   -1.7613   -7.3780 F   0  0  0  0  0  0  0  0  0  0  0  0
    4.3545    0.1147   -8.3857 C   0  0  0  0  0  0  0  0  0  0  0  0
    3.4934    1.1919   -8.2713 C   0  0  0  0  0  0  0  0  0  0  0  0
    3.3099    2.0058   -9.3190 F   0  0  0  0  0  0  0  0  0  0  0  0
    2.8079    1.4470   -7.0840 C   0  0  0  0  0  0  0  0  0  0  0  0
    0.9671    1.4175   -4.6870 C   0  0  0  0  0  0  0  0  0  0  0  0
    0.3849    1.5737   -3.4581 C   0  0  0  0  0  0  0  0  0  0  0  0
    0.9725    1.1898   -2.3200 N   0  0  0  0  0  0  0  0  0  0  0  0
    3.0926   -0.5489    0.9820 C   0  0  0  0  0  0  0  0  0  0  0  0
    4.4129   -0.7485    0.7983 N   0  0  0  0  0  0  0  0  0  0  0  0
    4.8437   -1.3193    1.9580 N   0  0  0  0  0  0  0  0  0  0  0  0
    6.1952   -1.6996    2.1292 C   0  0  0  0  0  0  0  0  0  0  0  0
    6.6208   -2.4341    3.2411 C   0  0  0  0  0  0  0  0  0  0  0  0
    7.9622   -2.7788    3.3405 C   0  0  0  0  0  0  0  0  0  0  0  0
    8.3931   -3.4930    4.3875 F   0  0  0  0  0  0  0  0  0  0  0  0
    8.8396   -2.3793    2.3498 C   0  0  0  0  0  0  0  0  0  0  0  0
    8.4616   -1.6674    1.2617 N   0  0  0  0  0  0  0  0  0  0  0  0
    7.1450   -1.3456    1.1725 C   0  0  0  0  0  0  0  0  0  0  0  0
    3.8176   -1.4684    2.8618 C   0  0  0  0  0  0  0  0  0  0  0  0
    2.6867   -0.9700    2.2698 C   0  0  0  0  0  0  0  0  0  0  0  0
    3.7647   -0.1566   -1.3721 H   0  0  0  0  0  0  0  0  0  0  0  0
    4.0146   -1.1567   -5.2583 H   0  0  0  0  0  0  0  0  0  0  0  0
    4.8830   -0.0764   -9.3117 H   0  0  0  0  0  0  0  0  0  0  0  0
    2.1592    2.3184   -7.0568 H   0  0  0  0  0  0  0  0  0  0  0  0
    0.4381    1.7088   -5.5840 H   0  0  0  0  0  0  0  0  0  0  0  0
   -0.6014    2.0139   -3.3459 H   0  0  0  0  0  0  0  0  0  0  0  0
    5.9505   -2.7678    4.0247 H   0  0  0  0  0  0  0  0  0  0  0  0
    9.8931   -2.6334    2.4054 H   0  0  0  0  0  0  0  0  0  0  0  0
    6.8866   -0.7695    0.2869 H   0  0  0  0  0  0  0  0  0  0  0  0
    3.9600   -1.8961    3.8425 H   0  0  0  0  0  0  0  0  0  0  0  0
    1.6887   -0.9244    2.6862 H   0  0  0  0  0  0  0  0  0  0  0  0
  1  2  2  0  0  0  0
  2  3  1  0  0  0  0
  2 18  1  0  0  0  0
  3  4  1  0  0  0  0
  3 30  1  0  0  0  0
  4  5  2  0  0  0  0
  4 17  1  0  0  0  0
  5  6  1  0  0  0  0
  6  7  1  0  0  0  0
  6 15  2  0  0  0  0
  7  8  2  0  0  0  0
  7 14  1  0  0  0  0
  8  9  1  0  0  0  0
  8 31  1  0  0  0  0
  9 10  1  0  0  0  0
  9 11  2  0  0  0  0
 11 12  1  0  0  0  0
 11 32  1  0  0  0  0
 12 13  1  0  0  0  0
 12 14  2  0  0  0  0
 14 33  1  0  0  0  0
 15 16  1  0  0  0  0
 15 34  1  0  0  0  0
 16 17  2  0  0  0  0
 16 35  1  0  0  0  0
 18 19  2  0  0  0  0
 18 29  1  0  0  0  0
 19 20  1  0  0  0  0
 20 21  1  0  0  0  0
 20 28  1  0  0  0  0
 21 22  2  0  0  0  0
 21 27  1  0  0  0  0
 22 23  1  0  0  0  0
 22 36  1  0  0  0  0
 23 24  1  0  0  0  0
 23 25  2  0  0  0  0
 25 26  1  0  0  0  0
 25 37  1  0  0  0  0
 26 27  2  0  0  0  0
 27 38  1  0  0  0  0
 28 29  2  0  0  0  0
 28 39  1  0  0  0  0
 29 40  1  0  0  0  0
M  END
$$$$
