
     RDKit          3D

 33 37  0  0  0  0  0  0  0  0999 V2000
  201.1247  128.2583  130.6289 C   0  0  0  0  0  0  0  0  0  0  0  0
  201.9863  129.0747  129.8339 O   0  0  0  0  0  0  0  0  0  0  0  0
  201.9657  130.4462  129.8434 C   0  0  0  0  0  0  0  0  0  0  0  0
  201.1467  131.0358  130.5917 O   0  0  0  0  0  0  0  0  0  0  0  0
  202.8258  131.2533  129.0480 N   0  0  0  0  0  0  0  0  0  0  0  0
  202.9601  132.6468  129.3534 C   0  0  0  0  0  0  0  0  0  0  0  0
  202.1286  133.3945  130.0998 N   0  0  0  0  0  0  0  0  0  0  0  0
  202.5754  134.6733  130.1710 C   0  0  0  0  0  0  0  0  0  0  0  0
  202.0851  135.7939  130.8028 C   0  0  0  0  0  0  0  0  0  0  0  0
  202.7663  137.0163  130.7076 C   0  0  0  0  0  0  0  0  0  0  0  0
  203.9091  137.0375  129.9762 C   0  0  0  0  0  0  0  0  0  0  0  0
  204.4135  135.8979  129.3300 C   0  0  0  0  0  0  0  0  0  0  0  0
  203.7467  134.6951  129.4216 C   0  0  0  0  0  0  0  0  0  0  0  0
  203.9584  133.4434  128.9334 N   0  0  0  0  0  0  0  0  0  0  0  0
  202.1819  138.1432  131.3959 C   0  0  0  0  0  0  0  0  0  0  0  0
  200.7925  137.7354  131.6632 O   0  0  0  0  0  0  0  0  0  0  0  0
  202.6333  138.5831  132.6399 N   0  0  0  0  0  0  0  0  0  0  0  0
  202.4988  140.0103  132.6942 C   0  0  0  0  0  0  0  0  0  0  0  0
  202.6472  140.7535  133.7070 O   0  0  0  0  0  0  0  0  0  0  0  0
  202.1567  140.4372  131.3503 C   0  0  0  0  0  0  0  0  0  0  0  0
  201.9898  141.7091  130.7724 C   0  0  0  0  0  0  0  0  0  0  0  0
  201.7549  141.8592  129.4225 C   0  0  0  0  0  0  0  0  0  0  0  0
  201.6851  140.7229  128.6351 C   0  0  0  0  0  0  0  0  0  0  0  0
  201.8394  139.4565  129.1508 C   0  0  0  0  0  0  0  0  0  0  0  0
  202.0757  139.3468  130.5338 C   0  0  0  0  0  0  0  0  0  0  0  0
  203.1212  137.8533  133.7968 C   0  0  0  0  0  0  0  0  0  0  0  0
  204.4686  137.8399  134.0889 C   0  0  0  0  0  0  0  0  0  0  0  0
  204.9598  137.1105  135.1743 C   0  0  0  0  0  0  0  0  0  0  0  0
  206.6715  137.0882  135.5518 Cl  0  0  0  0  0  0  0  0  0  0  0  0
  204.1103  136.3860  135.9805 C   0  0  0  0  0  0  0  0  0  0  0  0
  202.7667  136.3977  135.6898 C   0  0  0  0  0  0  0  0  0  0  0  0
  202.2780  137.1307  134.5989 C   0  0  0  0  0  0  0  0  0  0  0  0
  200.8301  137.0537  134.3279 C   0  0  0  0  0  0  0  0  0  0  0  0
  1  2  1  0
  2  3  1  0
  3  4  2  0
  3  5  1  0
  5  6  1  0
  6  7  2  0
  7  8  1  0
  8  9  2  0
  9 10  1  0
 10 11  2  0
 11 12  1  0
 12 13  2  0
 13 14  1  0
 10 15  1  0
 15 16  1  0
 15 17  1  0
 17 18  1  0
 18 19  2  0
 18 20  1  0
 20 21  2  0
 21 22  1  0
 22 23  2  0
 23 24  1  0
 24 25  2  0
 17 26  1  0
 26 27  2  0
 27 28  1  0
 28 29  1  0
 28 30  2  0
 30 31  1  0
 31 32  2  0
 32 33  1  0
 14  6  1  0
 25 15  1  0
 32 26  1  0
 13  8  1  0
 25 20  1  0
M  END
$$$$
