
     RDKit          3D

 33 37  0  0  0  0  0  0  0  0999 V2000
  203.7915  142.0302  127.9919 C   0  0  0  0  0  0  0  0  0  0  0  0
  203.3281  141.5721  129.2633 O   0  0  0  0  0  0  0  0  0  0  0  0
  203.7517  140.4123  129.8606 C   0  0  0  0  0  0  0  0  0  0  0  0
  204.2167  139.4936  129.1408 O   0  0  0  0  0  0  0  0  0  0  0  0
  203.6967  140.1819  131.2634 N   0  0  0  0  0  0  0  0  0  0  0  0
  203.6356  138.8360  131.7509 C   0  0  0  0  0  0  0  0  0  0  0  0
  203.3642  138.4430  133.0076 N   0  0  0  0  0  0  0  0  0  0  0  0
  203.3941  137.0899  133.0985 C   0  0  0  0  0  0  0  0  0  0  0  0
  203.1866  136.2253  134.1497 C   0  0  0  0  0  0  0  0  0  0  0  0
  203.2818  134.8394  133.9569 C   0  0  0  0  0  0  0  0  0  0  0  0
  203.5829  134.4033  132.7077 C   0  0  0  0  0  0  0  0  0  0  0  0
  203.7955  135.2802  131.6324 C   0  0  0  0  0  0  0  0  0  0  0  0
  203.7025  136.6427  131.8183 C   0  0  0  0  0  0  0  0  0  0  0  0
  203.8447  137.7307  131.0145 N   0  0  0  0  0  0  0  0  0  0  0  0
  203.0545  134.0036  135.1124 C   0  0  0  0  0  0  0  0  0  0  0  0
  202.8879  132.6477  134.5629 O   0  0  0  0  0  0  0  0  0  0  0  0
  204.0071  133.8296  136.1157 N   0  0  0  0  0  0  0  0  0  0  0  0
  203.3260  133.6857  137.3700 C   0  0  0  0  0  0  0  0  0  0  0  0
  203.8318  133.3499  138.4797 O   0  0  0  0  0  0  0  0  0  0  0  0
  201.9334  134.0031  137.1144 C   0  0  0  0  0  0  0  0  0  0  0  0
  200.8165  134.1223  137.9617 C   0  0  0  0  0  0  0  0  0  0  0  0
  199.5927  134.5375  137.4822 C   0  0  0  0  0  0  0  0  0  0  0  0
  199.4798  134.8389  136.1359 C   0  0  0  0  0  0  0  0  0  0  0  0
  200.5403  134.7371  135.2649 C   0  0  0  0  0  0  0  0  0  0  0  0
  201.7716  134.3079  135.7942 C   0  0  0  0  0  0  0  0  0  0  0  0
  205.4547  133.7277  136.0574 C   0  0  0  0  0  0  0  0  0  0  0  0
  206.0485  132.6010  135.5294 C   0  0  0  0  0  0  0  0  0  0  0  0
  207.4389  132.4689  135.5020 C   0  0  0  0  0  0  0  0  0  0  0  0
  208.2011  131.0393  134.8328 Cl  0  0  0  0  0  0  0  0  0  0  0  0
  208.2522  133.4615  136.0022 C   0  0  0  0  0  0  0  0  0  0  0  0
  207.6614  134.5851  136.5298 C   0  0  0  0  0  0  0  0  0  0  0  0
  206.2653  134.7131  136.5558 C   0  0  0  0  0  0  0  0  0  0  0  0
  205.7102  135.9285  137.1805 C   0  0  0  0  0  0  0  0  0  0  0  0
  1  2  1  0
  2  3  1  0
  3  4  2  0
  3  5  1  0
  5  6  1  0
  6  7  2  0
  7  8  1  0
  8  9  2  0
  9 10  1  0
 10 11  2  0
 11 12  1  0
 12 13  2  0
 13 14  1  0
 10 15  1  0
 15 16  1  0
 15 17  1  0
 17 18  1  0
 18 19  2  0
 18 20  1  0
 20 21  2  0
 21 22  1  0
 22 23  2  0
 23 24  1  0
 24 25  2  0
 17 26  1  0
 26 27  2  0
 27 28  1  0
 28 29  1  0
 28 30  2  0
 30 31  1  0
 31 32  2  0
 32 33  1  0
 14  6  1  0
 25 15  1  0
 32 26  1  0
 13  8  1  0
 25 20  1  0
M  END
$$$$
