
     RDKit          3D

 33 37  0  0  0  0  0  0  0  0999 V2000
  108.6759  169.4635  138.8065 C   0  0  0  0  0  0  0  0  0  0  0  0
  109.9124  169.8319  139.4199 O   0  0  0  0  0  0  0  0  0  0  0  0
  110.8098  168.9319  139.9356 C   0  0  0  0  0  0  0  0  0  0  0  0
  110.5655  167.7039  139.8319 O   0  0  0  0  0  0  0  0  0  0  0  0
  112.0162  169.3074  140.5893 N   0  0  0  0  0  0  0  0  0  0  0  0
  113.0226  168.3157  140.8273 C   0  0  0  0  0  0  0  0  0  0  0  0
  114.1670  168.4742  141.5149 N   0  0  0  0  0  0  0  0  0  0  0  0
  114.8743  167.3167  141.5322 C   0  0  0  0  0  0  0  0  0  0  0  0
  116.0839  166.9765  142.0948 C   0  0  0  0  0  0  0  0  0  0  0  0
  116.5899  165.6759  141.9545 C   0  0  0  0  0  0  0  0  0  0  0  0
  115.8422  164.7889  141.2505 C   0  0  0  0  0  0  0  0  0  0  0  0
  114.6084  165.1305  140.6748 C   0  0  0  0  0  0  0  0  0  0  0  0
  114.1080  166.4076  140.8110 C   0  0  0  0  0  0  0  0  0  0  0  0
  112.9817  167.0443  140.3917 N   0  0  0  0  0  0  0  0  0  0  0  0
  117.8671  165.4036  142.5709 C   0  0  0  0  0  0  0  0  0  0  0  0
  118.7317  166.5152  142.1406 O   0  0  0  0  0  0  0  0  0  0  0  0
  118.0453  165.3739  143.9536 N   0  0  0  0  0  0  0  0  0  0  0  0
  119.0344  164.3821  144.2638 C   0  0  0  0  0  0  0  0  0  0  0  0
  119.5830  164.1747  145.3845 O   0  0  0  0  0  0  0  0  0  0  0  0
  119.2841  163.6585  143.0310 C   0  0  0  0  0  0  0  0  0  0  0  0
  120.0741  162.5325  142.7352 C   0  0  0  0  0  0  0  0  0  0  0  0
  120.0709  161.9629  141.4800 C   0  0  0  0  0  0  0  0  0  0  0  0
  119.2671  162.5248  140.5031 C   0  0  0  0  0  0  0  0  0  0  0  0
  118.4774  163.6266  140.7401 C   0  0  0  0  0  0  0  0  0  0  0  0
  118.5111  164.1788  142.0341 C   0  0  0  0  0  0  0  0  0  0  0  0
  117.4607  166.1754  145.0142 C   0  0  0  0  0  0  0  0  0  0  0  0
  116.1729  165.9272  145.4396 C   0  0  0  0  0  0  0  0  0  0  0  0
  115.5807  166.7138  146.4305 C   0  0  0  0  0  0  0  0  0  0  0  0
  113.9438  166.4047  146.9762 Cl  0  0  0  0  0  0  0  0  0  0  0  0
  116.2687  167.7578  147.0079 C   0  0  0  0  0  0  0  0  0  0  0  0
  117.5524  168.0071  146.5840 C   0  0  0  0  0  0  0  0  0  0  0  0
  118.1427  167.2153  145.5886 C   0  0  0  0  0  0  0  0  0  0  0  0
  119.5061  167.5774  145.1580 C   0  0  0  0  0  0  0  0  0  0  0  0
  1  2  1  0
  2  3  1  0
  3  4  2  0
  3  5  1  0
  5  6  1  0
  6  7  2  0
  7  8  1  0
  8  9  2  0
  9 10  1  0
 10 11  2  0
 11 12  1  0
 12 13  2  0
 13 14  1  0
 10 15  1  0
 15 16  1  0
 15 17  1  0
 17 18  1  0
 18 19  2  0
 18 20  1  0
 20 21  2  0
 21 22  1  0
 22 23  2  0
 23 24  1  0
 24 25  2  0
 17 26  1  0
 26 27  2  0
 27 28  1  0
 28 29  1  0
 28 30  2  0
 30 31  1  0
 31 32  2  0
 32 33  1  0
 14  6  1  0
 25 15  1  0
 32 26  1  0
 13  8  1  0
 25 20  1  0
M  END
$$$$
