
     RDKit          3D

 33 37  0  0  0  0  0  0  0  0999 V2000
  136.0672  142.3533  125.5055 C   0  0  0  0  0  0  0  0  0  0  0  0
  135.2588  141.3410  126.1079 O   0  0  0  0  0  0  0  0  0  0  0  0
  134.4260  141.5603  127.1755 C   0  0  0  0  0  0  0  0  0  0  0  0
  134.4525  142.6792  127.7462 O   0  0  0  0  0  0  0  0  0  0  0  0
  133.5220  140.5865  127.6836 N   0  0  0  0  0  0  0  0  0  0  0  0
  132.8492  140.8341  128.9241 C   0  0  0  0  0  0  0  0  0  0  0  0
  131.9343  140.0484  129.5184 N   0  0  0  0  0  0  0  0  0  0  0  0
  131.5149  140.6051  130.6822 C   0  0  0  0  0  0  0  0  0  0  0  0
  130.6072  140.1956  131.6329 C   0  0  0  0  0  0  0  0  0  0  0  0
  130.3623  140.9856  132.7656 C   0  0  0  0  0  0  0  0  0  0  0  0
  131.0511  142.1498  132.8743 C   0  0  0  0  0  0  0  0  0  0  0  0
  131.9777  142.5720  131.9080 C   0  0  0  0  0  0  0  0  0  0  0  0
  132.2209  141.7980  130.7937 C   0  0  0  0  0  0  0  0  0  0  0  0
  133.0292  141.9131  129.7059 N   0  0  0  0  0  0  0  0  0  0  0  0
  129.3921  140.4859  133.7112 C   0  0  0  0  0  0  0  0  0  0  0  0
  128.5468  139.5701  132.9271 O   0  0  0  0  0  0  0  0  0  0  0  0
  129.7474  139.7233  134.8233 N   0  0  0  0  0  0  0  0  0  0  0  0
  128.8535  140.0431  135.8989 C   0  0  0  0  0  0  0  0  0  0  0  0
  128.7510  139.4469  137.0098 O   0  0  0  0  0  0  0  0  0  0  0  0
  128.0846  141.1925  135.4594 C   0  0  0  0  0  0  0  0  0  0  0  0
  127.1314  142.0000  136.1066 C   0  0  0  0  0  0  0  0  0  0  0  0
  126.6023  143.1164  135.4953 C   0  0  0  0  0  0  0  0  0  0  0  0
  127.0301  143.4335  134.2176 C   0  0  0  0  0  0  0  0  0  0  0  0
  127.9582  142.6762  133.5403 C   0  0  0  0  0  0  0  0  0  0  0  0
  128.4722  141.5437  134.1991 C   0  0  0  0  0  0  0  0  0  0  0  0
  130.7675  138.7053  135.0028 C   0  0  0  0  0  0  0  0  0  0  0  0
  131.9698  139.0274  135.5959 C   0  0  0  0  0  0  0  0  0  0  0  0
  132.9774  138.0706  135.7403 C   0  0  0  0  0  0  0  0  0  0  0  0
  134.5087  138.4727  136.4927 Cl  0  0  0  0  0  0  0  0  0  0  0  0
  132.7951  136.7807  135.2938 C   0  0  0  0  0  0  0  0  0  0  0  0
  131.5971  136.4583  134.7014 C   0  0  0  0  0  0  0  0  0  0  0  0
  130.5888  137.4221  134.5579 C   0  0  0  0  0  0  0  0  0  0  0  0
  129.3514  137.0076  133.8704 C   0  0  0  0  0  0  0  0  0  0  0  0
  1  2  1  0
  2  3  1  0
  3  4  2  0
  3  5  1  0
  5  6  1  0
  6  7  2  0
  7  8  1  0
  8  9  2  0
  9 10  1  0
 10 11  2  0
 11 12  1  0
 12 13  2  0
 13 14  1  0
 10 15  1  0
 15 16  1  0
 15 17  1  0
 17 18  1  0
 18 19  2  0
 18 20  1  0
 20 21  2  0
 21 22  1  0
 22 23  2  0
 23 24  1  0
 24 25  2  0
 17 26  1  0
 26 27  2  0
 27 28  1  0
 28 29  1  0
 28 30  2  0
 30 31  1  0
 31 32  2  0
 32 33  1  0
 14  6  1  0
 25 15  1  0
 32 26  1  0
 13  8  1  0
 25 20  1  0
M  END
$$$$
