
     RDKit          3D

 33 37  0  0  0  0  0  0  0  0999 V2000
  215.4056  131.3582  133.3046 C   0  0  0  0  0  0  0  0  0  0  0  0
  214.5722  132.5002  133.5107 O   0  0  0  0  0  0  0  0  0  0  0  0
  213.2064  132.4417  133.6218 C   0  0  0  0  0  0  0  0  0  0  0  0
  212.6368  131.3260  133.5257 O   0  0  0  0  0  0  0  0  0  0  0  0
  212.3835  133.5811  133.8424 N   0  0  0  0  0  0  0  0  0  0  0  0
  210.9656  133.4653  133.6719 C   0  0  0  0  0  0  0  0  0  0  0  0
  210.0620  134.4598  133.7187 N   0  0  0  0  0  0  0  0  0  0  0  0
  208.8119  133.9749  133.5132 C   0  0  0  0  0  0  0  0  0  0  0  0
  207.5769  134.5818  133.4673 C   0  0  0  0  0  0  0  0  0  0  0  0
  206.4221  133.8216  133.2314 C   0  0  0  0  0  0  0  0  0  0  0  0
  206.5808  132.4855  133.0547 C   0  0  0  0  0  0  0  0  0  0  0  0
  207.8375  131.8617  133.1005 C   0  0  0  0  0  0  0  0  0  0  0  0
  208.9744  132.6058  133.3318 C   0  0  0  0  0  0  0  0  0  0  0  0
  210.3006  132.3213  133.4338 N   0  0  0  0  0  0  0  0  0  0  0  0
  205.1668  134.5349  133.2038 C   0  0  0  0  0  0  0  0  0  0  0  0
  204.1710  133.5194  132.8225 O   0  0  0  0  0  0  0  0  0  0  0  0
  204.6090  135.1226  134.3387 N   0  0  0  0  0  0  0  0  0  0  0  0
  203.9236  136.3187  133.9416 C   0  0  0  0  0  0  0  0  0  0  0  0
  203.1611  137.0342  134.6533 O   0  0  0  0  0  0  0  0  0  0  0  0
  204.2790  136.5483  132.5536 C   0  0  0  0  0  0  0  0  0  0  0  0
  203.9926  137.5984  131.6622 C   0  0  0  0  0  0  0  0  0  0  0  0
  204.5369  137.6342  130.3962 C   0  0  0  0  0  0  0  0  0  0  0  0
  205.3807  136.6064  130.0121 C   0  0  0  0  0  0  0  0  0  0  0  0
  205.6914  135.5557  130.8448 C   0  0  0  0  0  0  0  0  0  0  0  0
  205.1134  135.5560  132.1279 C   0  0  0  0  0  0  0  0  0  0  0  0
  204.5839  134.6959  135.7266 C   0  0  0  0  0  0  0  0  0  0  0  0
  205.5069  135.1952  136.6210 C   0  0  0  0  0  0  0  0  0  0  0  0
  205.5227  134.7657  137.9501 C   0  0  0  0  0  0  0  0  0  0  0  0
  206.6934  135.3954  139.0928 Cl  0  0  0  0  0  0  0  0  0  0  0  0
  204.6161  133.8323  138.4011 C   0  0  0  0  0  0  0  0  0  0  0  0
  203.6958  133.3329  137.5103 C   0  0  0  0  0  0  0  0  0  0  0  0
  203.6841  133.7664  136.1768 C   0  0  0  0  0  0  0  0  0  0  0  0
  202.6948  133.1478  135.2744 C   0  0  0  0  0  0  0  0  0  0  0  0
  1  2  1  0
  2  3  1  0
  3  4  2  0
  3  5  1  0
  5  6  1  0
  6  7  2  0
  7  8  1  0
  8  9  2  0
  9 10  1  0
 10 11  2  0
 11 12  1  0
 12 13  2  0
 13 14  1  0
 10 15  1  0
 15 16  1  0
 15 17  1  0
 17 18  1  0
 18 19  2  0
 18 20  1  0
 20 21  2  0
 21 22  1  0
 22 23  2  0
 23 24  1  0
 24 25  2  0
 17 26  1  0
 26 27  2  0
 27 28  1  0
 28 29  1  0
 28 30  2  0
 30 31  1  0
 31 32  2  0
 32 33  1  0
 14  6  1  0
 25 15  1  0
 32 26  1  0
 13  8  1  0
 25 20  1  0
M  END
$$$$
