
     RDKit          3D

 33 37  0  0  0  0  0  0  0  0999 V2000
  127.6381  160.8999  146.2775 C   0  0  0  0  0  0  0  0  0  0  0  0
  126.3077  160.5560  146.6683 O   0  0  0  0  0  0  0  0  0  0  0  0
  125.2258  161.3852  146.5155 C   0  0  0  0  0  0  0  0  0  0  0  0
  125.1147  162.3833  147.2702 O   0  0  0  0  0  0  0  0  0  0  0  0
  124.2081  161.1826  145.5423 N   0  0  0  0  0  0  0  0  0  0  0  0
  123.0517  162.0286  145.5507 C   0  0  0  0  0  0  0  0  0  0  0  0
  122.2166  162.2663  144.5243 N   0  0  0  0  0  0  0  0  0  0  0  0
  121.2327  163.1206  144.9012 C   0  0  0  0  0  0  0  0  0  0  0  0
  120.1602  163.6575  144.2252 C   0  0  0  0  0  0  0  0  0  0  0  0
  119.2796  164.5345  144.8753 C   0  0  0  0  0  0  0  0  0  0  0  0
  119.5336  164.8209  146.1772 C   0  0  0  0  0  0  0  0  0  0  0  0
  120.6254  164.2763  146.8713 C   0  0  0  0  0  0  0  0  0  0  0  0
  121.4926  163.4140  146.2355 C   0  0  0  0  0  0  0  0  0  0  0  0
  122.6100  162.7333  146.6071 N   0  0  0  0  0  0  0  0  0  0  0  0
  118.1838  165.0563  144.0930 C   0  0  0  0  0  0  0  0  0  0  0  0
  117.1320  165.3544  145.0795 O   0  0  0  0  0  0  0  0  0  0  0  0
  118.2786  166.2369  143.3568 N   0  0  0  0  0  0  0  0  0  0  0  0
  117.4866  166.0973  142.1688 C   0  0  0  0  0  0  0  0  0  0  0  0
  117.1904  167.0034  141.3374 O   0  0  0  0  0  0  0  0  0  0  0  0
  117.0891  164.7031  142.1075 C   0  0  0  0  0  0  0  0  0  0  0  0
  116.3903  163.9574  141.1405 C   0  0  0  0  0  0  0  0  0  0  0  0
  116.2175  162.5960  141.2705 C   0  0  0  0  0  0  0  0  0  0  0  0
  116.7499  161.9671  142.3828 C   0  0  0  0  0  0  0  0  0  0  0  0
  117.4398  162.6503  143.3579 C   0  0  0  0  0  0  0  0  0  0  0  0
  117.5923  164.0391  143.1883 C   0  0  0  0  0  0  0  0  0  0  0  0
  118.9607  167.4886  143.6340 C   0  0  0  0  0  0  0  0  0  0  0  0
  120.1557  167.7785  143.0103 C   0  0  0  0  0  0  0  0  0  0  0  0
  120.8454  168.9595  143.2950 C   0  0  0  0  0  0  0  0  0  0  0  0
  122.3653  169.3347  142.5065 Cl  0  0  0  0  0  0  0  0  0  0  0  0
  120.3489  169.8646  144.2066 C   0  0  0  0  0  0  0  0  0  0  0  0
  119.1580  169.5764  144.8300 C   0  0  0  0  0  0  0  0  0  0  0  0
  118.4694  168.3895  144.5416 C   0  0  0  0  0  0  0  0  0  0  0  0
  117.2226  168.1339  145.2871 C   0  0  0  0  0  0  0  0  0  0  0  0
  1  2  1  0
  2  3  1  0
  3  4  2  0
  3  5  1  0
  5  6  1  0
  6  7  2  0
  7  8  1  0
  8  9  2  0
  9 10  1  0
 10 11  2  0
 11 12  1  0
 12 13  2  0
 13 14  1  0
 10 15  1  0
 15 16  1  0
 15 17  1  0
 17 18  1  0
 18 19  2  0
 18 20  1  0
 20 21  2  0
 21 22  1  0
 22 23  2  0
 23 24  1  0
 24 25  2  0
 17 26  1  0
 26 27  2  0
 27 28  1  0
 28 29  1  0
 28 30  2  0
 30 31  1  0
 31 32  2  0
 32 33  1  0
 14  6  1  0
 25 15  1  0
 32 26  1  0
 13  8  1  0
 25 20  1  0
M  END
$$$$
