
     RDKit          3D

 33 37  0  0  0  0  0  0  0  0999 V2000
  125.2334  143.0710  125.7599 C   0  0  0  0  0  0  0  0  0  0  0  0
  126.1555  142.8286  126.8239 O   0  0  0  0  0  0  0  0  0  0  0  0
  126.2877  143.6390  127.9226 C   0  0  0  0  0  0  0  0  0  0  0  0
  125.6726  144.7342  127.9465 O   0  0  0  0  0  0  0  0  0  0  0  0
  127.0886  143.3121  129.0520 N   0  0  0  0  0  0  0  0  0  0  0  0
  127.1850  144.2436  130.1364 C   0  0  0  0  0  0  0  0  0  0  0  0
  128.1032  144.2487  131.1184 N   0  0  0  0  0  0  0  0  0  0  0  0
  127.8809  145.2806  131.9704 C   0  0  0  0  0  0  0  0  0  0  0  0
  128.5326  145.7024  133.1074 C   0  0  0  0  0  0  0  0  0  0  0  0
  128.0770  146.8280  133.8092 C   0  0  0  0  0  0  0  0  0  0  0  0
  126.9838  147.4666  133.3206 C   0  0  0  0  0  0  0  0  0  0  0  0
  126.3156  147.0409  132.1618 C   0  0  0  0  0  0  0  0  0  0  0  0
  126.7608  145.9352  131.4697 C   0  0  0  0  0  0  0  0  0  0  0  0
  126.3558  145.2806  130.3483 N   0  0  0  0  0  0  0  0  0  0  0  0
  128.8144  147.2000  134.9937 C   0  0  0  0  0  0  0  0  0  0  0  0
  129.6159  148.3645  134.5818 O   0  0  0  0  0  0  0  0  0  0  0  0
  128.1919  147.6351  136.1632 N   0  0  0  0  0  0  0  0  0  0  0  0
  128.9596  147.1767  137.2851 C   0  0  0  0  0  0  0  0  0  0  0  0
  128.8101  147.5037  138.4978 O   0  0  0  0  0  0  0  0  0  0  0  0
  129.9482  146.2579  136.7522 C   0  0  0  0  0  0  0  0  0  0  0  0
  130.9091  145.4358  137.3688 C   0  0  0  0  0  0  0  0  0  0  0  0
  131.6830  144.5617  136.6358 C   0  0  0  0  0  0  0  0  0  0  0  0
  131.4962  144.5059  135.2654 C   0  0  0  0  0  0  0  0  0  0  0  0
  130.5717  145.2895  134.6135 C   0  0  0  0  0  0  0  0  0  0  0  0
  129.8035  146.1697  135.3981 C   0  0  0  0  0  0  0  0  0  0  0  0
  127.0148  148.4590  136.3745 C   0  0  0  0  0  0  0  0  0  0  0  0
  127.0446  149.8017  136.0620 C   0  0  0  0  0  0  0  0  0  0  0  0
  125.9349  150.6172  136.2960 C   0  0  0  0  0  0  0  0  0  0  0  0
  125.9654  152.3250  135.9019 Cl  0  0  0  0  0  0  0  0  0  0  0  0
  124.7824  150.1007  136.8450 C   0  0  0  0  0  0  0  0  0  0  0  0
  124.7516  148.7624  137.1579 C   0  0  0  0  0  0  0  0  0  0  0  0
  125.8681  147.9475  136.9220 C   0  0  0  0  0  0  0  0  0  0  0  0
  125.7696  146.5330  137.3283 C   0  0  0  0  0  0  0  0  0  0  0  0
  1  2  1  0
  2  3  1  0
  3  4  2  0
  3  5  1  0
  5  6  1  0
  6  7  2  0
  7  8  1  0
  8  9  2  0
  9 10  1  0
 10 11  2  0
 11 12  1  0
 12 13  2  0
 13 14  1  0
 10 15  1  0
 15 16  1  0
 15 17  1  0
 17 18  1  0
 18 19  2  0
 18 20  1  0
 20 21  2  0
 21 22  1  0
 22 23  2  0
 23 24  1  0
 24 25  2  0
 17 26  1  0
 26 27  2  0
 27 28  1  0
 28 29  1  0
 28 30  2  0
 30 31  1  0
 31 32  2  0
 32 33  1  0
 14  6  1  0
 25 15  1  0
 32 26  1  0
 13  8  1  0
 25 20  1  0
M  END
$$$$
