
     RDKit          3D

 33 37  0  0  0  0  0  0  0  0999 V2000
  188.7432  160.1416  128.6820 C   0  0  0  0  0  0  0  0  0  0  0  0
  189.9456  159.9431  127.9364 O   0  0  0  0  0  0  0  0  0  0  0  0
  189.9788  159.7015  126.5866 C   0  0  0  0  0  0  0  0  0  0  0  0
  188.8940  159.5791  125.9650 O   0  0  0  0  0  0  0  0  0  0  0  0
  191.1815  159.5793  125.8367 N   0  0  0  0  0  0  0  0  0  0  0  0
  191.1078  159.2830  124.4368 C   0  0  0  0  0  0  0  0  0  0  0  0
  192.1280  158.9538  123.6254 N   0  0  0  0  0  0  0  0  0  0  0  0
  191.6806  158.7433  122.3621 C   0  0  0  0  0  0  0  0  0  0  0  0
  192.3232  158.3919  121.1964 C   0  0  0  0  0  0  0  0  0  0  0  0
  191.5978  158.2381  120.0059 C   0  0  0  0  0  0  0  0  0  0  0  0
  190.2584  158.4491  120.0607 C   0  0  0  0  0  0  0  0  0  0  0  0
  189.5981  158.8075  121.2464 C   0  0  0  0  0  0  0  0  0  0  0  0
  190.3080  158.9594  122.4182 C   0  0  0  0  0  0  0  0  0  0  0  0
  189.9845  159.2877  123.6978 N   0  0  0  0  0  0  0  0  0  0  0  0
  192.3487  157.8730  118.8278 C   0  0  0  0  0  0  0  0  0  0  0  0
  191.4603  156.9600  118.0892 O   0  0  0  0  0  0  0  0  0  0  0  0
  192.7319  158.8016  117.8606 N   0  0  0  0  0  0  0  0  0  0  0  0
  194.0056  158.4077  117.3308 C   0  0  0  0  0  0  0  0  0  0  0  0
  194.6014  158.8995  116.3292 O   0  0  0  0  0  0  0  0  0  0  0  0
  194.4797  157.3269  118.1750 C   0  0  0  0  0  0  0  0  0  0  0  0
  195.6887  156.6082  118.2066 C   0  0  0  0  0  0  0  0  0  0  0  0
  195.9426  155.6729  119.1869 C   0  0  0  0  0  0  0  0  0  0  0  0
  194.9756  155.4501  120.1519 C   0  0  0  0  0  0  0  0  0  0  0  0
  193.7762  156.1247  120.1650 C   0  0  0  0  0  0  0  0  0  0  0  0
  193.5556  157.0696  119.1457 C   0  0  0  0  0  0  0  0  0  0  0  0
  192.0524  159.9701  117.3296 C   0  0  0  0  0  0  0  0  0  0  0  0
  191.3345  159.8795  116.1559 C   0  0  0  0  0  0  0  0  0  0  0  0
  190.7081  161.0023  115.6099 C   0  0  0  0  0  0  0  0  0  0  0  0
  189.7942  160.8951  114.1179 Cl  0  0  0  0  0  0  0  0  0  0  0  0
  190.7918  162.2289  116.2303 C   0  0  0  0  0  0  0  0  0  0  0  0
  191.5080  162.3210  117.4001 C   0  0  0  0  0  0  0  0  0  0  0  0
  192.1358  161.1914  117.9444 C   0  0  0  0  0  0  0  0  0  0  0  0
  192.9227  161.3844  119.1769 C   0  0  0  0  0  0  0  0  0  0  0  0
  1  2  1  0
  2  3  1  0
  3  4  2  0
  3  5  1  0
  5  6  1  0
  6  7  2  0
  7  8  1  0
  8  9  2  0
  9 10  1  0
 10 11  2  0
 11 12  1  0
 12 13  2  0
 13 14  1  0
 10 15  1  0
 15 16  1  0
 15 17  1  0
 17 18  1  0
 18 19  2  0
 18 20  1  0
 20 21  2  0
 21 22  1  0
 22 23  2  0
 23 24  1  0
 24 25  2  0
 17 26  1  0
 26 27  2  0
 27 28  1  0
 28 29  1  0
 28 30  2  0
 30 31  1  0
 31 32  2  0
 32 33  1  0
 14  6  1  0
 25 15  1  0
 32 26  1  0
 13  8  1  0
 25 20  1  0
M  END
$$$$
