
     RDKit          3D

 33 37  0  0  0  0  0  0  0  0999 V2000
  177.4608  163.6640  131.8434 C   0  0  0  0  0  0  0  0  0  0  0  0
  178.2611  162.9175  132.7617 O   0  0  0  0  0  0  0  0  0  0  0  0
  177.9889  162.8079  134.1016 C   0  0  0  0  0  0  0  0  0  0  0  0
  177.4798  163.7885  134.6997 O   0  0  0  0  0  0  0  0  0  0  0  0
  178.2507  161.6373  134.8664 N   0  0  0  0  0  0  0  0  0  0  0  0
  179.5985  161.1666  134.9887 C   0  0  0  0  0  0  0  0  0  0  0  0
  180.1507  160.5647  136.0565 N   0  0  0  0  0  0  0  0  0  0  0  0
  181.4490  160.2584  135.8097 C   0  0  0  0  0  0  0  0  0  0  0  0
  182.4196  159.6480  136.5718 C   0  0  0  0  0  0  0  0  0  0  0  0
  183.7085  159.4529  136.0542 C   0  0  0  0  0  0  0  0  0  0  0  0
  183.9450  159.8876  134.7906 C   0  0  0  0  0  0  0  0  0  0  0  0
  182.9590  160.5104  134.0093 C   0  0  0  0  0  0  0  0  0  0  0  0
  181.6914  160.7035  134.5148 C   0  0  0  0  0  0  0  0  0  0  0  0
  180.5435  161.2544  134.0363 N   0  0  0  0  0  0  0  0  0  0  0  0
  184.6682  158.8096  136.9205 C   0  0  0  0  0  0  0  0  0  0  0  0
  185.7288  158.3381  136.0145 O   0  0  0  0  0  0  0  0  0  0  0  0
  185.3713  159.4978  137.9087 N   0  0  0  0  0  0  0  0  0  0  0  0
  185.5718  158.6160  139.0224 C   0  0  0  0  0  0  0  0  0  0  0  0
  186.3020  158.8185  140.0352 O   0  0  0  0  0  0  0  0  0  0  0  0
  184.7671  157.4380  138.7573 C   0  0  0  0  0  0  0  0  0  0  0  0
  184.4898  156.2876  139.5183 C   0  0  0  0  0  0  0  0  0  0  0  0
  183.5986  155.3327  139.0776 C   0  0  0  0  0  0  0  0  0  0  0  0
  182.9733  155.5275  137.8581 C   0  0  0  0  0  0  0  0  0  0  0  0
  183.2107  156.6337  137.0747 C   0  0  0  0  0  0  0  0  0  0  0  0
  184.1287  157.5836  137.5601 C   0  0  0  0  0  0  0  0  0  0  0  0
  185.9237  160.8407  137.9348 C   0  0  0  0  0  0  0  0  0  0  0  0
  187.1292  161.1053  137.3202 C   0  0  0  0  0  0  0  0  0  0  0  0
  187.6945  162.3817  137.3696 C   0  0  0  0  0  0  0  0  0  0  0  0
  189.2270  162.7257  136.5912 Cl  0  0  0  0  0  0  0  0  0  0  0  0
  187.0616  163.4088  138.0339 C   0  0  0  0  0  0  0  0  0  0  0  0
  185.8601  163.1462  138.6480 C   0  0  0  0  0  0  0  0  0  0  0  0
  185.2965  161.8632  138.5964 C   0  0  0  0  0  0  0  0  0  0  0  0
  184.0283  161.6531  139.3195 C   0  0  0  0  0  0  0  0  0  0  0  0
  1  2  1  0
  2  3  1  0
  3  4  2  0
  3  5  1  0
  5  6  1  0
  6  7  2  0
  7  8  1  0
  8  9  2  0
  9 10  1  0
 10 11  2  0
 11 12  1  0
 12 13  2  0
 13 14  1  0
 10 15  1  0
 15 16  1  0
 15 17  1  0
 17 18  1  0
 18 19  2  0
 18 20  1  0
 20 21  2  0
 21 22  1  0
 22 23  2  0
 23 24  1  0
 24 25  2  0
 17 26  1  0
 26 27  2  0
 27 28  1  0
 28 29  1  0
 28 30  2  0
 30 31  1  0
 31 32  2  0
 32 33  1  0
 14  6  1  0
 25 15  1  0
 32 26  1  0
 13  8  1  0
 25 20  1  0
M  END
$$$$
