
     RDKit          3D

 33 37  0  0  0  0  0  0  0  0999 V2000
  174.0198  144.6574  127.1409 C   0  0  0  0  0  0  0  0  0  0  0  0
  173.0341  145.2822  127.9650 O   0  0  0  0  0  0  0  0  0  0  0  0
  171.9898  146.0271  127.4792 C   0  0  0  0  0  0  0  0  0  0  0  0
  171.8491  146.1364  126.2356 O   0  0  0  0  0  0  0  0  0  0  0  0
  171.0434  146.6924  128.3072 N   0  0  0  0  0  0  0  0  0  0  0  0
  170.0281  147.5015  127.7009 C   0  0  0  0  0  0  0  0  0  0  0  0
  169.0208  148.1366  128.3250 N   0  0  0  0  0  0  0  0  0  0  0  0
  168.2545  148.8067  127.4285 C   0  0  0  0  0  0  0  0  0  0  0  0
  167.1318  149.5908  127.5698 C   0  0  0  0  0  0  0  0  0  0  0  0
  166.5295  150.1753  126.4461 C   0  0  0  0  0  0  0  0  0  0  0  0
  167.0979  149.9334  125.2378 C   0  0  0  0  0  0  0  0  0  0  0  0
  168.2426  149.1348  125.0880 C   0  0  0  0  0  0  0  0  0  0  0  0
  168.8370  148.5590  126.1902 C   0  0  0  0  0  0  0  0  0  0  0  0
  169.9193  147.7587  126.3857 N   0  0  0  0  0  0  0  0  0  0  0  0
  165.3530  150.9790  126.6813 C   0  0  0  0  0  0  0  0  0  0  0  0
  165.1162  150.8753  128.1309 O   0  0  0  0  0  0  0  0  0  0  0  0
  165.3201  152.3533  126.4472 N   0  0  0  0  0  0  0  0  0  0  0  0
  164.0053  152.7066  125.9950 C   0  0  0  0  0  0  0  0  0  0  0  0
  163.5392  153.8719  125.8377 O   0  0  0  0  0  0  0  0  0  0  0  0
  163.3100  151.4564  125.7521 C   0  0  0  0  0  0  0  0  0  0  0  0
  162.0409  151.1645  125.2195 C   0  0  0  0  0  0  0  0  0  0  0  0
  161.6380  149.8656  124.9948 C   0  0  0  0  0  0  0  0  0  0  0  0
  162.5143  148.8402  125.3060 C   0  0  0  0  0  0  0  0  0  0  0  0
  163.7653  149.0717  125.8304 C   0  0  0  0  0  0  0  0  0  0  0  0
  164.1372  150.4117  126.0464 C   0  0  0  0  0  0  0  0  0  0  0  0
  166.3262  153.3834  126.6363 C   0  0  0  0  0  0  0  0  0  0  0  0
  166.5434  153.9171  127.8889 C   0  0  0  0  0  0  0  0  0  0  0  0
  167.4788  154.9365  128.0818 C   0  0  0  0  0  0  0  0  0  0  0  0
  167.7600  155.6205  129.6711 Cl  0  0  0  0  0  0  0  0  0  0  0  0
  168.2082  155.4345  127.0250 C   0  0  0  0  0  0  0  0  0  0  0  0
  167.9920  154.9039  125.7754 C   0  0  0  0  0  0  0  0  0  0  0  0
  167.0516  153.8812  125.5862 C   0  0  0  0  0  0  0  0  0  0  0  0
  166.8467  153.3988  124.2075 C   0  0  0  0  0  0  0  0  0  0  0  0
  1  2  1  0
  2  3  1  0
  3  4  2  0
  3  5  1  0
  5  6  1  0
  6  7  2  0
  7  8  1  0
  8  9  2  0
  9 10  1  0
 10 11  2  0
 11 12  1  0
 12 13  2  0
 13 14  1  0
 10 15  1  0
 15 16  1  0
 15 17  1  0
 17 18  1  0
 18 19  2  0
 18 20  1  0
 20 21  2  0
 21 22  1  0
 22 23  2  0
 23 24  1  0
 24 25  2  0
 17 26  1  0
 26 27  2  0
 27 28  1  0
 28 29  1  0
 28 30  2  0
 30 31  1  0
 31 32  2  0
 32 33  1  0
 14  6  1  0
 25 15  1  0
 32 26  1  0
 13  8  1  0
 25 20  1  0
M  END
$$$$
