
     RDKit          3D

 33 37  0  0  0  0  0  0  0  0999 V2000
  167.6409  147.4857  136.1591 C   0  0  0  0  0  0  0  0  0  0  0  0
  167.7384  148.8052  135.6200 O   0  0  0  0  0  0  0  0  0  0  0  0
  168.0626  149.0776  134.3154 C   0  0  0  0  0  0  0  0  0  0  0  0
  169.1060  149.7345  134.0737 O   0  0  0  0  0  0  0  0  0  0  0  0
  167.2806  148.6569  133.2040 N   0  0  0  0  0  0  0  0  0  0  0  0
  167.3722  149.3780  131.9693 C   0  0  0  0  0  0  0  0  0  0  0  0
  166.5649  149.2574  130.9009 N   0  0  0  0  0  0  0  0  0  0  0  0
  166.9561  150.1006  129.9130 C   0  0  0  0  0  0  0  0  0  0  0  0
  166.4622  150.3447  128.6513 C   0  0  0  0  0  0  0  0  0  0  0  0
  167.0766  151.2936  127.8211 C   0  0  0  0  0  0  0  0  0  0  0  0
  168.1599  151.9451  128.3146 C   0  0  0  0  0  0  0  0  0  0  0  0
  168.6676  151.7002  129.6002 C   0  0  0  0  0  0  0  0  0  0  0  0
  168.0662  150.7684  130.4187 C   0  0  0  0  0  0  0  0  0  0  0  0
  168.2986  150.3076  131.6771 N   0  0  0  0  0  0  0  0  0  0  0  0
  166.4987  151.4852  126.5116 C   0  0  0  0  0  0  0  0  0  0  0  0
  166.9716  152.8137  126.0878 O   0  0  0  0  0  0  0  0  0  0  0  0
  166.8106  150.6703  125.4238 N   0  0  0  0  0  0  0  0  0  0  0  0
  165.6409  150.5385  124.6038 C   0  0  0  0  0  0  0  0  0  0  0  0
  165.5693  150.0174  123.4534 O   0  0  0  0  0  0  0  0  0  0  0  0
  164.5484  151.1244  125.3579 C   0  0  0  0  0  0  0  0  0  0  0  0
  163.1651  151.2072  125.1150 C   0  0  0  0  0  0  0  0  0  0  0  0
  162.3027  151.7401  126.0491 C   0  0  0  0  0  0  0  0  0  0  0  0
  162.8276  152.1982  127.2452 C   0  0  0  0  0  0  0  0  0  0  0  0
  164.1725  152.1420  127.5312 C   0  0  0  0  0  0  0  0  0  0  0  0
  165.0188  151.5925  126.5502 C   0  0  0  0  0  0  0  0  0  0  0  0
  168.0572  150.0443  125.0198 C   0  0  0  0  0  0  0  0  0  0  0  0
  168.9313  150.7146  124.1905 C   0  0  0  0  0  0  0  0  0  0  0  0
  170.1158  150.1122  123.7598 C   0  0  0  0  0  0  0  0  0  0  0  0
  171.2318  150.9577  122.7051 Cl  0  0  0  0  0  0  0  0  0  0  0  0
  170.4407  148.8329  124.1529 C   0  0  0  0  0  0  0  0  0  0  0  0
  169.5696  148.1631  124.9790 C   0  0  0  0  0  0  0  0  0  0  0  0
  168.3814  148.7714  125.4084 C   0  0  0  0  0  0  0  0  0  0  0  0
  167.4796  147.9684  126.2556 C   0  0  0  0  0  0  0  0  0  0  0  0
  1  2  1  0
  2  3  1  0
  3  4  2  0
  3  5  1  0
  5  6  1  0
  6  7  2  0
  7  8  1  0
  8  9  2  0
  9 10  1  0
 10 11  2  0
 11 12  1  0
 12 13  2  0
 13 14  1  0
 10 15  1  0
 15 16  1  0
 15 17  1  0
 17 18  1  0
 18 19  2  0
 18 20  1  0
 20 21  2  0
 21 22  1  0
 22 23  2  0
 23 24  1  0
 24 25  2  0
 17 26  1  0
 26 27  2  0
 27 28  1  0
 28 29  1  0
 28 30  2  0
 30 31  1  0
 31 32  2  0
 32 33  1  0
 14  6  1  0
 25 15  1  0
 32 26  1  0
 13  8  1  0
 25 20  1  0
M  END
$$$$
