
     RDKit          3D

 33 37  0  0  0  0  0  0  0  0999 V2000
  125.5902  147.2355  126.9736 C   0  0  0  0  0  0  0  0  0  0  0  0
  126.4207  147.2467  128.1360 O   0  0  0  0  0  0  0  0  0  0  0  0
  127.5189  148.0547  128.2851 C   0  0  0  0  0  0  0  0  0  0  0  0
  127.7827  148.8924  127.3867 O   0  0  0  0  0  0  0  0  0  0  0  0
  128.3895  148.0027  129.4090 N   0  0  0  0  0  0  0  0  0  0  0  0
  128.1261  147.0617  130.4569 C   0  0  0  0  0  0  0  0  0  0  0  0
  128.4898  147.1657  131.7471 N   0  0  0  0  0  0  0  0  0  0  0  0
  128.0675  146.0837  132.4478 C   0  0  0  0  0  0  0  0  0  0  0  0
  128.1898  145.7304  133.7728 C   0  0  0  0  0  0  0  0  0  0  0  0
  127.6438  144.5252  134.2382 C   0  0  0  0  0  0  0  0  0  0  0  0
  127.0025  143.7416  133.3348 C   0  0  0  0  0  0  0  0  0  0  0  0
  126.8749  144.0970  131.9828 C   0  0  0  0  0  0  0  0  0  0  0  0
  127.4101  145.2807  131.5221 C   0  0  0  0  0  0  0  0  0  0  0  0
  127.4607  145.9022  130.3133 N   0  0  0  0  0  0  0  0  0  0  0  0
  127.8208  144.2282  135.6403 C   0  0  0  0  0  0  0  0  0  0  0  0
  126.7921  143.2177  135.9385 O   0  0  0  0  0  0  0  0  0  0  0  0
  128.9880  143.6590  136.1484 N   0  0  0  0  0  0  0  0  0  0  0  0
  129.2184  144.1888  137.4616 C   0  0  0  0  0  0  0  0  0  0  0  0
  130.0782  143.7979  138.3029 O   0  0  0  0  0  0  0  0  0  0  0  0
  128.2649  145.2684  137.6367 C   0  0  0  0  0  0  0  0  0  0  0  0
  128.0720  146.2059  138.6679 C   0  0  0  0  0  0  0  0  0  0  0  0
  127.1404  147.2157  138.5553 C   0  0  0  0  0  0  0  0  0  0  0  0
  126.3885  147.2926  137.3957 C   0  0  0  0  0  0  0  0  0  0  0  0
  126.5368  146.4002  136.3587 C   0  0  0  0  0  0  0  0  0  0  0  0
  127.4971  145.3833  136.5144 C   0  0  0  0  0  0  0  0  0  0  0  0
  129.8838  142.6556  135.6008 C   0  0  0  0  0  0  0  0  0  0  0  0
  130.9097  143.0294  134.7587 C   0  0  0  0  0  0  0  0  0  0  0  0
  131.7559  142.0738  134.1912 C   0  0  0  0  0  0  0  0  0  0  0  0
  133.0619  142.5411  133.1194 Cl  0  0  0  0  0  0  0  0  0  0  0  0
  131.5868  140.7334  134.4586 C   0  0  0  0  0  0  0  0  0  0  0  0
  130.5638  140.3593  135.2972 C   0  0  0  0  0  0  0  0  0  0  0  0
  129.7163  141.3218  135.8641 C   0  0  0  0  0  0  0  0  0  0  0  0
  128.6152  140.8343  136.7159 C   0  0  0  0  0  0  0  0  0  0  0  0
  1  2  1  0
  2  3  1  0
  3  4  2  0
  3  5  1  0
  5  6  1  0
  6  7  2  0
  7  8  1  0
  8  9  2  0
  9 10  1  0
 10 11  2  0
 11 12  1  0
 12 13  2  0
 13 14  1  0
 10 15  1  0
 15 16  1  0
 15 17  1  0
 17 18  1  0
 18 19  2  0
 18 20  1  0
 20 21  2  0
 21 22  1  0
 22 23  2  0
 23 24  1  0
 24 25  2  0
 17 26  1  0
 26 27  2  0
 27 28  1  0
 28 29  1  0
 28 30  2  0
 30 31  1  0
 31 32  2  0
 32 33  1  0
 14  6  1  0
 25 15  1  0
 32 26  1  0
 13  8  1  0
 25 20  1  0
M  END
$$$$
