
     RDKit          3D

 33 37  0  0  0  0  0  0  0  0999 V2000
  123.9324  137.6453  128.2284 C   0  0  0  0  0  0  0  0  0  0  0  0
  124.5280  137.7096  129.5254 O   0  0  0  0  0  0  0  0  0  0  0  0
  124.9490  138.8727  130.1182 C   0  0  0  0  0  0  0  0  0  0  0  0
  124.9943  139.9229  129.4300 O   0  0  0  0  0  0  0  0  0  0  0  0
  125.3427  138.9651  131.4821 N   0  0  0  0  0  0  0  0  0  0  0  0
  125.9083  140.1890  131.9671 C   0  0  0  0  0  0  0  0  0  0  0  0
  126.2986  140.4562  133.2256 N   0  0  0  0  0  0  0  0  0  0  0  0
  126.7860  141.7190  133.3132 C   0  0  0  0  0  0  0  0  0  0  0  0
  127.2989  142.4453  134.3644 C   0  0  0  0  0  0  0  0  0  0  0  0
  127.7407  143.7617  134.1675 C   0  0  0  0  0  0  0  0  0  0  0  0
  127.6390  144.2724  132.9144 C   0  0  0  0  0  0  0  0  0  0  0  0
  127.1171  143.5365  131.8390 C   0  0  0  0  0  0  0  0  0  0  0  0
  126.6820  142.2424  132.0290 C   0  0  0  0  0  0  0  0  0  0  0  0
  126.1424  141.2862  131.2262 N   0  0  0  0  0  0  0  0  0  0  0  0
  128.2600  144.4545  135.3233 C   0  0  0  0  0  0  0  0  0  0  0  0
  128.5749  143.3860  136.2863 O   0  0  0  0  0  0  0  0  0  0  0  0
  129.4318  145.2095  135.2857 N   0  0  0  0  0  0  0  0  0  0  0  0
  129.2835  146.3246  136.1760 C   0  0  0  0  0  0  0  0  0  0  0  0
  130.1820  147.1383  136.5374 O   0  0  0  0  0  0  0  0  0  0  0  0
  127.8910  146.3360  136.5838 C   0  0  0  0  0  0  0  0  0  0  0  0
  127.1386  147.2317  137.3654 C   0  0  0  0  0  0  0  0  0  0  0  0
  125.7797  147.0719  137.5330 C   0  0  0  0  0  0  0  0  0  0  0  0
  125.1602  146.0015  136.9113 C   0  0  0  0  0  0  0  0  0  0  0  0
  125.8503  145.0962  136.1380 C   0  0  0  0  0  0  0  0  0  0  0  0
  127.2362  145.2941  135.9940 C   0  0  0  0  0  0  0  0  0  0  0  0
  130.6827  145.0055  134.5766 C   0  0  0  0  0  0  0  0  0  0  0  0
  131.0592  145.8733  133.5735 C   0  0  0  0  0  0  0  0  0  0  0  0
  132.2392  145.6693  132.8543 C   0  0  0  0  0  0  0  0  0  0  0  0
  132.7243  146.7679  131.5773 Cl  0  0  0  0  0  0  0  0  0  0  0  0
  133.0568  144.5957  133.1290 C   0  0  0  0  0  0  0  0  0  0  0  0
  132.6822  143.7291  134.1283 C   0  0  0  0  0  0  0  0  0  0  0  0
  131.4965  143.9373  134.8473 C   0  0  0  0  0  0  0  0  0  0  0  0
  131.1434  142.9365  135.8717 C   0  0  0  0  0  0  0  0  0  0  0  0
  1  2  1  0
  2  3  1  0
  3  4  2  0
  3  5  1  0
  5  6  1  0
  6  7  2  0
  7  8  1  0
  8  9  2  0
  9 10  1  0
 10 11  2  0
 11 12  1  0
 12 13  2  0
 13 14  1  0
 10 15  1  0
 15 16  1  0
 15 17  1  0
 17 18  1  0
 18 19  2  0
 18 20  1  0
 20 21  2  0
 21 22  1  0
 22 23  2  0
 23 24  1  0
 24 25  2  0
 17 26  1  0
 26 27  2  0
 27 28  1  0
 28 29  1  0
 28 30  2  0
 30 31  1  0
 31 32  2  0
 32 33  1  0
 14  6  1  0
 25 15  1  0
 32 26  1  0
 13  8  1  0
 25 20  1  0
M  END
$$$$
