
     RDKit          3D

 33 37  0  0  0  0  0  0  0  0999 V2000
  121.0812  138.8772  127.9292 C   0  0  0  0  0  0  0  0  0  0  0  0
  121.9755  139.9415  128.2587 O   0  0  0  0  0  0  0  0  0  0  0  0
  123.0245  139.8174  129.1337 C   0  0  0  0  0  0  0  0  0  0  0  0
  122.9566  138.9547  130.0444 O   0  0  0  0  0  0  0  0  0  0  0  0
  124.2006  140.6156  129.0731 N   0  0  0  0  0  0  0  0  0  0  0  0
  124.8531  140.9959  130.2907 C   0  0  0  0  0  0  0  0  0  0  0  0
  125.4397  142.1755  130.5591 N   0  0  0  0  0  0  0  0  0  0  0  0
  125.9542  142.1749  131.8142 C   0  0  0  0  0  0  0  0  0  0  0  0
  126.6353  143.1271  132.5386 C   0  0  0  0  0  0  0  0  0  0  0  0
  127.0603  142.8526  133.8467 C   0  0  0  0  0  0  0  0  0  0  0  0
  126.7721  141.6263  134.3512 C   0  0  0  0  0  0  0  0  0  0  0  0
  126.0780  140.6518  133.6170 C   0  0  0  0  0  0  0  0  0  0  0  0
  125.6587  140.9183  132.3313 C   0  0  0  0  0  0  0  0  0  0  0  0
  124.9853  140.2180  131.3793 N   0  0  0  0  0  0  0  0  0  0  0  0
  127.7722  143.9039  134.5347 C   0  0  0  0  0  0  0  0  0  0  0  0
  127.7454  143.5047  135.9518 O   0  0  0  0  0  0  0  0  0  0  0  0
  129.1196  144.1783  134.3029 N   0  0  0  0  0  0  0  0  0  0  0  0
  129.3258  145.5917  134.4364 C   0  0  0  0  0  0  0  0  0  0  0  0
  130.4328  146.2031  134.4611 O   0  0  0  0  0  0  0  0  0  0  0  0
  128.0062  146.1865  134.5381 C   0  0  0  0  0  0  0  0  0  0  0  0
  127.5697  147.5228  134.5949 C   0  0  0  0  0  0  0  0  0  0  0  0
  126.2285  147.8408  134.5917 C   0  0  0  0  0  0  0  0  0  0  0  0
  125.3067  146.8100  134.5308 C   0  0  0  0  0  0  0  0  0  0  0  0
  125.6810  145.4869  134.4756 C   0  0  0  0  0  0  0  0  0  0  0  0
  127.0598  145.2050  134.4830 C   0  0  0  0  0  0  0  0  0  0  0  0
  130.2439  143.3014  134.0271 C   0  0  0  0  0  0  0  0  0  0  0  0
  130.6229  143.0505  132.7253 C   0  0  0  0  0  0  0  0  0  0  0  0
  131.6763  142.1785  132.4405 C   0  0  0  0  0  0  0  0  0  0  0  0
  132.1635  141.8540  130.7882 Cl  0  0  0  0  0  0  0  0  0  0  0  0
  132.3635  141.5469  133.4532 C   0  0  0  0  0  0  0  0  0  0  0  0
  131.9861  141.7955  134.7516 C   0  0  0  0  0  0  0  0  0  0  0  0
  130.9276  142.6710  135.0329 C   0  0  0  0  0  0  0  0  0  0  0  0
  130.5558  142.8478  136.4493 C   0  0  0  0  0  0  0  0  0  0  0  0
  1  2  1  0
  2  3  1  0
  3  4  2  0
  3  5  1  0
  5  6  1  0
  6  7  2  0
  7  8  1  0
  8  9  2  0
  9 10  1  0
 10 11  2  0
 11 12  1  0
 12 13  2  0
 13 14  1  0
 10 15  1  0
 15 16  1  0
 15 17  1  0
 17 18  1  0
 18 19  2  0
 18 20  1  0
 20 21  2  0
 21 22  1  0
 22 23  2  0
 23 24  1  0
 24 25  2  0
 17 26  1  0
 26 27  2  0
 27 28  1  0
 28 29  1  0
 28 30  2  0
 30 31  1  0
 31 32  2  0
 32 33  1  0
 14  6  1  0
 25 15  1  0
 32 26  1  0
 13  8  1  0
 25 20  1  0
M  END
$$$$
