
     RDKit          3D

 33 37  0  0  0  0  0  0  0  0999 V2000
  133.7462  139.3905  117.4335 C   0  0  0  0  0  0  0  0  0  0  0  0
  134.5727  139.5850  118.5824 O   0  0  0  0  0  0  0  0  0  0  0  0
  134.1225  139.4913  119.8746 C   0  0  0  0  0  0  0  0  0  0  0  0
  132.9316  139.1473  120.0791 O   0  0  0  0  0  0  0  0  0  0  0  0
  134.9311  139.7630  121.0132 N   0  0  0  0  0  0  0  0  0  0  0  0
  134.3332  139.7564  122.3153 C   0  0  0  0  0  0  0  0  0  0  0  0
  134.9231  140.0872  123.4773 N   0  0  0  0  0  0  0  0  0  0  0  0
  134.0483  139.9608  124.5062 C   0  0  0  0  0  0  0  0  0  0  0  0
  134.1705  140.1774  125.8604 C   0  0  0  0  0  0  0  0  0  0  0  0
  133.0783  139.9632  126.7138 C   0  0  0  0  0  0  0  0  0  0  0  0
  131.9194  139.5403  126.1485 C   0  0  0  0  0  0  0  0  0  0  0  0
  131.7892  139.3180  124.7686 C   0  0  0  0  0  0  0  0  0  0  0  0
  132.8605  139.5277  123.9271 C   0  0  0  0  0  0  0  0  0  0  0  0
  133.0625  139.4110  122.5871 N   0  0  0  0  0  0  0  0  0  0  0  0
  133.2925  140.2090  128.1205 C   0  0  0  0  0  0  0  0  0  0  0  0
  134.6759  139.7696  128.3680 O   0  0  0  0  0  0  0  0  0  0  0  0
  133.2566  141.4877  128.6760 N   0  0  0  0  0  0  0  0  0  0  0  0
  132.7145  141.3933  130.0008 C   0  0  0  0  0  0  0  0  0  0  0  0
  132.6750  142.3050  130.8767 O   0  0  0  0  0  0  0  0  0  0  0  0
  132.2170  140.0373  130.1402 C   0  0  0  0  0  0  0  0  0  0  0  0
  131.5080  139.3877  131.1672 C   0  0  0  0  0  0  0  0  0  0  0  0
  131.0545  138.0944  131.0197 C   0  0  0  0  0  0  0  0  0  0  0  0
  131.3117  137.4374  129.8288 C   0  0  0  0  0  0  0  0  0  0  0  0
  132.0019  138.0267  128.7944 C   0  0  0  0  0  0  0  0  0  0  0  0
  132.4493  139.3472  128.9861 C   0  0  0  0  0  0  0  0  0  0  0  0
  133.7045  142.7701  128.1623 C   0  0  0  0  0  0  0  0  0  0  0  0
  135.0065  143.1784  128.3602 C   0  0  0  0  0  0  0  0  0  0  0  0
  135.4436  144.4257  127.9080 C   0  0  0  0  0  0  0  0  0  0  0  0
  137.0971  144.9520  128.1564 Cl  0  0  0  0  0  0  0  0  0  0  0  0
  134.5845  145.2797  127.2527 C   0  0  0  0  0  0  0  0  0  0  0  0
  133.2858  144.8743  127.0556 C   0  0  0  0  0  0  0  0  0  0  0  0
  132.8512  143.6216  127.5118 C   0  0  0  0  0  0  0  0  0  0  0  0
  131.4315  143.2817  127.3012 C   0  0  0  0  0  0  0  0  0  0  0  0
  1  2  1  0
  2  3  1  0
  3  4  2  0
  3  5  1  0
  5  6  1  0
  6  7  2  0
  7  8  1  0
  8  9  2  0
  9 10  1  0
 10 11  2  0
 11 12  1  0
 12 13  2  0
 13 14  1  0
 10 15  1  0
 15 16  1  0
 15 17  1  0
 17 18  1  0
 18 19  2  0
 18 20  1  0
 20 21  2  0
 21 22  1  0
 22 23  2  0
 23 24  1  0
 24 25  2  0
 17 26  1  0
 26 27  2  0
 27 28  1  0
 28 29  1  0
 28 30  2  0
 30 31  1  0
 31 32  2  0
 32 33  1  0
 14  6  1  0
 25 15  1  0
 32 26  1  0
 13  8  1  0
 25 20  1  0
M  END
$$$$
