
     RDKit          3D

 33 37  0  0  0  0  0  0  0  0999 V2000
  180.0694  159.2511  133.1116 C   0  0  0  0  0  0  0  0  0  0  0  0
  180.5357  158.9140  134.4193 O   0  0  0  0  0  0  0  0  0  0  0  0
  181.5342  159.5890  135.0741 C   0  0  0  0  0  0  0  0  0  0  0  0
  182.7234  159.2156  134.9172 O   0  0  0  0  0  0  0  0  0  0  0  0
  181.3038  160.7007  135.9315 N   0  0  0  0  0  0  0  0  0  0  0  0
  182.2041  160.9458  137.0188 C   0  0  0  0  0  0  0  0  0  0  0  0
  183.3994  161.5580  136.9563 N   0  0  0  0  0  0  0  0  0  0  0  0
  183.9706  161.6102  138.1855 C   0  0  0  0  0  0  0  0  0  0  0  0
  185.1663  162.1261  138.6322 C   0  0  0  0  0  0  0  0  0  0  0  0
  185.5120  162.0415  139.9889 C   0  0  0  0  0  0  0  0  0  0  0  0
  184.6264  161.4377  140.8211 C   0  0  0  0  0  0  0  0  0  0  0  0
  183.4060  160.9100  140.3711 C   0  0  0  0  0  0  0  0  0  0  0  0
  183.0630  160.9917  139.0386 C   0  0  0  0  0  0  0  0  0  0  0  0
  181.9924  160.5951  138.2994 N   0  0  0  0  0  0  0  0  0  0  0  0
  186.7858  162.6030  140.3730 C   0  0  0  0  0  0  0  0  0  0  0  0
  186.4853  164.0019  140.7208 O   0  0  0  0  0  0  0  0  0  0  0  0
  187.5095  162.1459  141.4739 N   0  0  0  0  0  0  0  0  0  0  0  0
  188.9085  162.2489  141.1736 C   0  0  0  0  0  0  0  0  0  0  0  0
  189.8753  162.0873  141.9730 O   0  0  0  0  0  0  0  0  0  0  0  0
  188.9976  162.5773  139.7630 C   0  0  0  0  0  0  0  0  0  0  0  0
  190.0908  162.7142  138.8880 C   0  0  0  0  0  0  0  0  0  0  0  0
  189.9081  162.9414  137.5407 C   0  0  0  0  0  0  0  0  0  0  0  0
  188.6143  163.0339  137.0573 C   0  0  0  0  0  0  0  0  0  0  0  0
  187.5113  162.9093  137.8706 C   0  0  0  0  0  0  0  0  0  0  0  0
  187.7414  162.6799  139.2399 C   0  0  0  0  0  0  0  0  0  0  0  0
  187.0777  161.6780  142.7792 C   0  0  0  0  0  0  0  0  0  0  0  0
  186.7618  160.3493  142.9685 C   0  0  0  0  0  0  0  0  0  0  0  0
  186.3066  159.8896  144.2066 C   0  0  0  0  0  0  0  0  0  0  0  0
  185.9026  158.2021  144.4547 Cl  0  0  0  0  0  0  0  0  0  0  0  0
  186.1618  160.7525  145.2701 C   0  0  0  0  0  0  0  0  0  0  0  0
  186.4754  162.0778  145.0826 C   0  0  0  0  0  0  0  0  0  0  0  0
  186.9314  162.5349  143.8378 C   0  0  0  0  0  0  0  0  0  0  0  0
  187.2022  163.9789  143.7067 C   0  0  0  0  0  0  0  0  0  0  0  0
  1  2  1  0
  2  3  1  0
  3  4  2  0
  3  5  1  0
  5  6  1  0
  6  7  2  0
  7  8  1  0
  8  9  2  0
  9 10  1  0
 10 11  2  0
 11 12  1  0
 12 13  2  0
 13 14  1  0
 10 15  1  0
 15 16  1  0
 15 17  1  0
 17 18  1  0
 18 19  2  0
 18 20  1  0
 20 21  2  0
 21 22  1  0
 22 23  2  0
 23 24  1  0
 24 25  2  0
 17 26  1  0
 26 27  2  0
 27 28  1  0
 28 29  1  0
 28 30  2  0
 30 31  1  0
 31 32  2  0
 32 33  1  0
 14  6  1  0
 25 15  1  0
 32 26  1  0
 13  8  1  0
 25 20  1  0
M  END
$$$$
