
     RDKit          3D

 33 37  0  0  0  0  0  0  0  0999 V2000
  124.3646  178.2891  153.8615 C   0  0  0  0  0  0  0  0  0  0  0  0
  124.8933  178.4437  152.5434 O   0  0  0  0  0  0  0  0  0  0  0  0
  125.9093  179.3073  152.2220 C   0  0  0  0  0  0  0  0  0  0  0  0
  126.4605  179.9645  153.1400 O   0  0  0  0  0  0  0  0  0  0  0  0
  126.3843  179.5077  150.8961 N   0  0  0  0  0  0  0  0  0  0  0  0
  127.4994  180.3800  150.6752 C   0  0  0  0  0  0  0  0  0  0  0  0
  128.1201  180.6184  149.5067 N   0  0  0  0  0  0  0  0  0  0  0  0
  129.1357  181.5008  149.6803 C   0  0  0  0  0  0  0  0  0  0  0  0
  130.0471  182.0506  148.8071 C   0  0  0  0  0  0  0  0  0  0  0  0
  131.0113  182.9589  149.2680 C   0  0  0  0  0  0  0  0  0  0  0  0
  131.0003  183.2616  150.5907 C   0  0  0  0  0  0  0  0  0  0  0  0
  130.0734  182.7040  151.4854 C   0  0  0  0  0  0  0  0  0  0  0  0
  129.1244  181.8112  151.0358 C   0  0  0  0  0  0  0  0  0  0  0  0
  128.1144  181.1125  151.6202 N   0  0  0  0  0  0  0  0  0  0  0  0
  131.9322  183.4848  148.2879 C   0  0  0  0  0  0  0  0  0  0  0  0
  132.8960  184.2760  149.0709 O   0  0  0  0  0  0  0  0  0  0  0  0
  132.7471  182.6678  147.5049 N   0  0  0  0  0  0  0  0  0  0  0  0
  132.8988  183.2780  146.2155 C   0  0  0  0  0  0  0  0  0  0  0  0
  133.6893  182.9269  145.2925 O   0  0  0  0  0  0  0  0  0  0  0  0
  131.9612  184.3848  146.1773 C   0  0  0  0  0  0  0  0  0  0  0  0
  131.5943  185.2827  145.1582 C   0  0  0  0  0  0  0  0  0  0  0  0
  130.5873  186.2058  145.3428 C   0  0  0  0  0  0  0  0  0  0  0  0
  129.9350  186.2347  146.5634 C   0  0  0  0  0  0  0  0  0  0  0  0
  130.2566  185.3801  147.5930 C   0  0  0  0  0  0  0  0  0  0  0  0
  131.2916  184.4543  147.3643 C   0  0  0  0  0  0  0  0  0  0  0  0
  133.4416  181.4296  147.8105 C   0  0  0  0  0  0  0  0  0  0  0  0
  134.5807  181.4484  148.5871 C   0  0  0  0  0  0  0  0  0  0  0  0
  135.2838  180.2721  148.8578 C   0  0  0  0  0  0  0  0  0  0  0  0
  136.7330  180.2881  149.8438 Cl  0  0  0  0  0  0  0  0  0  0  0  0
  134.8566  179.0629  148.3555 C   0  0  0  0  0  0  0  0  0  0  0  0
  133.7215  179.0428  147.5803 C   0  0  0  0  0  0  0  0  0  0  0  0
  133.0193  180.2262  147.3106 C   0  0  0  0  0  0  0  0  0  0  0  0
  131.8381  180.1253  146.4330 C   0  0  0  0  0  0  0  0  0  0  0  0
  1  2  1  0
  2  3  1  0
  3  4  2  0
  3  5  1  0
  5  6  1  0
  6  7  2  0
  7  8  1  0
  8  9  2  0
  9 10  1  0
 10 11  2  0
 11 12  1  0
 12 13  2  0
 13 14  1  0
 10 15  1  0
 15 16  1  0
 15 17  1  0
 17 18  1  0
 18 19  2  0
 18 20  1  0
 20 21  2  0
 21 22  1  0
 22 23  2  0
 23 24  1  0
 24 25  2  0
 17 26  1  0
 26 27  2  0
 27 28  1  0
 28 29  1  0
 28 30  2  0
 30 31  1  0
 31 32  2  0
 32 33  1  0
 14  6  1  0
 25 15  1  0
 32 26  1  0
 13  8  1  0
 25 20  1  0
M  END
$$$$
