
     RDKit          3D

 33 37  0  0  0  0  0  0  0  0999 V2000
  122.2290  150.7525  138.9232 C   0  0  0  0  0  0  0  0  0  0  0  0
  121.9805  150.5345  140.3130 O   0  0  0  0  0  0  0  0  0  0  0  0
  122.8703  150.8480  141.3087 C   0  0  0  0  0  0  0  0  0  0  0  0
  124.0600  151.1080  140.9998 O   0  0  0  0  0  0  0  0  0  0  0  0
  122.5251  150.8978  142.6879 N   0  0  0  0  0  0  0  0  0  0  0  0
  123.2979  151.7159  143.5749 C   0  0  0  0  0  0  0  0  0  0  0  0
  122.8619  152.3452  144.6800 N   0  0  0  0  0  0  0  0  0  0  0  0
  123.8758  153.0281  145.2682 C   0  0  0  0  0  0  0  0  0  0  0  0
  123.9340  153.8118  146.3986 C   0  0  0  0  0  0  0  0  0  0  0  0
  125.1421  154.4107  146.7844 C   0  0  0  0  0  0  0  0  0  0  0  0
  126.2279  154.1831  146.0028 C   0  0  0  0  0  0  0  0  0  0  0  0
  126.1742  153.3849  144.8493 C   0  0  0  0  0  0  0  0  0  0  0  0
  124.9886  152.7947  144.4675 C   0  0  0  0  0  0  0  0  0  0  0  0
  124.6073  151.9897  143.4397 N   0  0  0  0  0  0  0  0  0  0  0  0
  125.1155  155.2208  147.9795 C   0  0  0  0  0  0  0  0  0  0  0  0
  123.6863  155.4824  148.2190 O   0  0  0  0  0  0  0  0  0  0  0  0
  125.5693  154.7576  149.2140 N   0  0  0  0  0  0  0  0  0  0  0  0
  126.1561  155.8570  149.9248 C   0  0  0  0  0  0  0  0  0  0  0  0
  126.5286  155.8734  151.1335 O   0  0  0  0  0  0  0  0  0  0  0  0
  126.2389  156.9541  148.9788 C   0  0  0  0  0  0  0  0  0  0  0  0
  126.7981  158.2422  149.0664 C   0  0  0  0  0  0  0  0  0  0  0  0
  126.8363  159.0840  147.9755 C   0  0  0  0  0  0  0  0  0  0  0  0
  126.3084  158.6348  146.7773 C   0  0  0  0  0  0  0  0  0  0  0  0
  125.7487  157.3853  146.6392 C   0  0  0  0  0  0  0  0  0  0  0  0
  125.7277  156.5578  147.7773 C   0  0  0  0  0  0  0  0  0  0  0  0
  125.4842  153.4493  149.8386 C   0  0  0  0  0  0  0  0  0  0  0  0
  126.4787  152.5172  149.6308 C   0  0  0  0  0  0  0  0  0  0  0  0
  126.3933  151.2404  150.1911 C   0  0  0  0  0  0  0  0  0  0  0  0
  127.6533  150.0498  149.9311 Cl  0  0  0  0  0  0  0  0  0  0  0  0
  125.3130  150.8801  150.9656 C   0  0  0  0  0  0  0  0  0  0  0  0
  124.3202  151.8082  151.1727 C   0  0  0  0  0  0  0  0  0  0  0  0
  124.4097  153.0885  150.6078 C   0  0  0  0  0  0  0  0  0  0  0  0
  123.2811  154.0094  150.8400 C   0  0  0  0  0  0  0  0  0  0  0  0
  1  2  1  0
  2  3  1  0
  3  4  2  0
  3  5  1  0
  5  6  1  0
  6  7  2  0
  7  8  1  0
  8  9  2  0
  9 10  1  0
 10 11  2  0
 11 12  1  0
 12 13  2  0
 13 14  1  0
 10 15  1  0
 15 16  1  0
 15 17  1  0
 17 18  1  0
 18 19  2  0
 18 20  1  0
 20 21  2  0
 21 22  1  0
 22 23  2  0
 23 24  1  0
 24 25  2  0
 17 26  1  0
 26 27  2  0
 27 28  1  0
 28 29  1  0
 28 30  2  0
 30 31  1  0
 31 32  2  0
 32 33  1  0
 14  6  1  0
 25 15  1  0
 32 26  1  0
 13  8  1  0
 25 20  1  0
M  END
$$$$
