
     RDKit          3D

 33 37  0  0  0  0  0  0  0  0999 V2000
  129.7702  134.1311  126.8002 C   0  0  0  0  0  0  0  0  0  0  0  0
  130.5757  135.3095  126.7410 O   0  0  0  0  0  0  0  0  0  0  0  0
  130.5130  136.3271  127.6586 C   0  0  0  0  0  0  0  0  0  0  0  0
  129.6479  136.2719  128.5681 O   0  0  0  0  0  0  0  0  0  0  0  0
  131.3781  137.4563  127.6444 N   0  0  0  0  0  0  0  0  0  0  0  0
  131.2150  138.4769  128.6367 C   0  0  0  0  0  0  0  0  0  0  0  0
  130.2655  138.5362  129.5868 N   0  0  0  0  0  0  0  0  0  0  0  0
  130.4243  139.6481  130.3475 C   0  0  0  0  0  0  0  0  0  0  0  0
  129.7224  140.1453  131.4224 C   0  0  0  0  0  0  0  0  0  0  0  0
  130.1165  141.3450  132.0326 C   0  0  0  0  0  0  0  0  0  0  0  0
  131.2022  141.9775  131.5199 C   0  0  0  0  0  0  0  0  0  0  0  0
  131.9215  141.4751  130.4242 C   0  0  0  0  0  0  0  0  0  0  0  0
  131.5369  140.2962  129.8223 C   0  0  0  0  0  0  0  0  0  0  0  0
  132.0006  139.5589  128.7777 N   0  0  0  0  0  0  0  0  0  0  0  0
  129.3233  141.7988  133.1507 C   0  0  0  0  0  0  0  0  0  0  0  0
  128.0956  140.9884  133.0882 O   0  0  0  0  0  0  0  0  0  0  0  0
  129.7364  141.6559  134.4749 N   0  0  0  0  0  0  0  0  0  0  0  0
  129.2634  142.7845  135.2236 C   0  0  0  0  0  0  0  0  0  0  0  0
  129.2942  142.9355  136.4791 O   0  0  0  0  0  0  0  0  0  0  0  0
  128.7389  143.7255  134.2514 C   0  0  0  0  0  0  0  0  0  0  0  0
  128.2301  145.0314  134.3739 C   0  0  0  0  0  0  0  0  0  0  0  0
  127.8762  145.7710  133.2658 C   0  0  0  0  0  0  0  0  0  0  0  0
  128.0320  145.1996  132.0147 C   0  0  0  0  0  0  0  0  0  0  0  0
  128.5232  143.9261  131.8403 C   0  0  0  0  0  0  0  0  0  0  0  0
  128.8708  143.2041  132.9973 C   0  0  0  0  0  0  0  0  0  0  0  0
  130.4629  140.5912  135.1440 C   0  0  0  0  0  0  0  0  0  0  0  0
  131.8011  140.7452  135.4383 C   0  0  0  0  0  0  0  0  0  0  0  0
  132.5250  139.7162  136.0454 C   0  0  0  0  0  0  0  0  0  0  0  0
  134.2266  139.9044  136.4222 Cl  0  0  0  0  0  0  0  0  0  0  0  0
  131.9200  138.5211  136.3655 C   0  0  0  0  0  0  0  0  0  0  0  0
  130.5860  138.3658  136.0718 C   0  0  0  0  0  0  0  0  0  0  0  0
  129.8634  139.4012  135.4617 C   0  0  0  0  0  0  0  0  0  0  0  0
  128.4486  139.1376  135.1383 C   0  0  0  0  0  0  0  0  0  0  0  0
  1  2  1  0
  2  3  1  0
  3  4  2  0
  3  5  1  0
  5  6  1  0
  6  7  2  0
  7  8  1  0
  8  9  2  0
  9 10  1  0
 10 11  2  0
 11 12  1  0
 12 13  2  0
 13 14  1  0
 10 15  1  0
 15 16  1  0
 15 17  1  0
 17 18  1  0
 18 19  2  0
 18 20  1  0
 20 21  2  0
 21 22  1  0
 22 23  2  0
 23 24  1  0
 24 25  2  0
 17 26  1  0
 26 27  2  0
 27 28  1  0
 28 29  1  0
 28 30  2  0
 30 31  1  0
 31 32  2  0
 32 33  1  0
 14  6  1  0
 25 15  1  0
 32 26  1  0
 13  8  1  0
 25 20  1  0
M  END
$$$$
