
     RDKit          3D

 33 37  0  0  0  0  0  0  0  0999 V2000
  187.8877  160.8882  130.0757 C   0  0  0  0  0  0  0  0  0  0  0  0
  189.2752  160.5837  130.2279 O   0  0  0  0  0  0  0  0  0  0  0  0
  190.2075  161.4731  130.6979 C   0  0  0  0  0  0  0  0  0  0  0  0
  189.8478  162.6481  130.9596 O   0  0  0  0  0  0  0  0  0  0  0  0
  191.5750  161.1435  130.9105 N   0  0  0  0  0  0  0  0  0  0  0  0
  192.5084  162.1869  131.2157 C   0  0  0  0  0  0  0  0  0  0  0  0
  193.8154  162.2195  130.9023 N   0  0  0  0  0  0  0  0  0  0  0  0
  194.3832  163.3657  131.3539 C   0  0  0  0  0  0  0  0  0  0  0  0
  195.6678  163.8558  131.2829 C   0  0  0  0  0  0  0  0  0  0  0  0
  195.9839  165.0998  131.8482 C   0  0  0  0  0  0  0  0  0  0  0  0
  194.9801  165.7813  132.4560 C   0  0  0  0  0  0  0  0  0  0  0  0
  193.6687  165.2863  132.5312 C   0  0  0  0  0  0  0  0  0  0  0  0
  193.3545  164.0643  131.9766 C   0  0  0  0  0  0  0  0  0  0  0  0
  192.2196  163.3211  131.8775 N   0  0  0  0  0  0  0  0  0  0  0  0
  197.3552  165.5379  131.7341 C   0  0  0  0  0  0  0  0  0  0  0  0
  198.1208  164.3031  131.4944 O   0  0  0  0  0  0  0  0  0  0  0  0
  197.7922  166.3895  130.7200 N   0  0  0  0  0  0  0  0  0  0  0  0
  198.8237  167.2348  131.2486 C   0  0  0  0  0  0  0  0  0  0  0  0
  199.5749  168.0196  130.6006 O   0  0  0  0  0  0  0  0  0  0  0  0
  198.8365  167.0115  132.6823 C   0  0  0  0  0  0  0  0  0  0  0  0
  199.5580  167.6129  133.7297 C   0  0  0  0  0  0  0  0  0  0  0  0
  199.3180  167.2860  135.0472 C   0  0  0  0  0  0  0  0  0  0  0  0
  198.3428  166.3439  135.3255 C   0  0  0  0  0  0  0  0  0  0  0  0
  197.6105  165.7251  134.3383 C   0  0  0  0  0  0  0  0  0  0  0  0
  197.8878  166.0858  133.0065 C   0  0  0  0  0  0  0  0  0  0  0  0
  197.4177  166.4864  129.3202 C   0  0  0  0  0  0  0  0  0  0  0  0
  196.2657  167.1509  128.9563 C   0  0  0  0  0  0  0  0  0  0  0  0
  195.8694  167.2194  127.6186 C   0  0  0  0  0  0  0  0  0  0  0  0
  194.4059  168.0619  127.1483 Cl  0  0  0  0  0  0  0  0  0  0  0  0
  196.6198  166.6246  126.6287 C   0  0  0  0  0  0  0  0  0  0  0  0
  197.7681  165.9610  126.9901 C   0  0  0  0  0  0  0  0  0  0  0  0
  198.1618  165.8941  128.3343 C   0  0  0  0  0  0  0  0  0  0  0  0
  199.3814  165.1242  128.6432 C   0  0  0  0  0  0  0  0  0  0  0  0
  1  2  1  0
  2  3  1  0
  3  4  2  0
  3  5  1  0
  5  6  1  0
  6  7  2  0
  7  8  1  0
  8  9  2  0
  9 10  1  0
 10 11  2  0
 11 12  1  0
 12 13  2  0
 13 14  1  0
 10 15  1  0
 15 16  1  0
 15 17  1  0
 17 18  1  0
 18 19  2  0
 18 20  1  0
 20 21  2  0
 21 22  1  0
 22 23  2  0
 23 24  1  0
 24 25  2  0
 17 26  1  0
 26 27  2  0
 27 28  1  0
 28 29  1  0
 28 30  2  0
 30 31  1  0
 31 32  2  0
 32 33  1  0
 14  6  1  0
 25 15  1  0
 32 26  1  0
 13  8  1  0
 25 20  1  0
M  END
$$$$
