
     RDKit          3D

 33 37  0  0  0  0  0  0  0  0999 V2000
  156.0772  171.5347  135.2593 C   0  0  0  0  0  0  0  0  0  0  0  0
  154.6594  171.7096  135.2738 O   0  0  0  0  0  0  0  0  0  0  0  0
  153.7637  170.6894  135.4698 C   0  0  0  0  0  0  0  0  0  0  0  0
  154.1248  169.5103  135.2300 O   0  0  0  0  0  0  0  0  0  0  0  0
  152.4334  170.8862  135.9340 N   0  0  0  0  0  0  0  0  0  0  0  0
  151.3547  170.8862  134.9910 C   0  0  0  0  0  0  0  0  0  0  0  0
  150.0776  170.5363  135.2237 N   0  0  0  0  0  0  0  0  0  0  0  0
  149.3379  170.6612  134.0935 C   0  0  0  0  0  0  0  0  0  0  0  0
  148.0077  170.4298  133.8245 C   0  0  0  0  0  0  0  0  0  0  0  0
  147.4967  170.6480  132.5367 C   0  0  0  0  0  0  0  0  0  0  0  0
  148.3623  171.0893  131.5893 C   0  0  0  0  0  0  0  0  0  0  0  0
  149.7194  171.3269  131.8581 C   0  0  0  0  0  0  0  0  0  0  0  0
  150.2248  171.1137  133.1226 C   0  0  0  0  0  0  0  0  0  0  0  0
  151.4504  171.2427  133.6981 N   0  0  0  0  0  0  0  0  0  0  0  0
  146.0924  170.3763  132.3382 C   0  0  0  0  0  0  0  0  0  0  0  0
  145.7686  171.0159  131.0520 O   0  0  0  0  0  0  0  0  0  0  0  0
  145.5882  169.0845  132.1913 N   0  0  0  0  0  0  0  0  0  0  0  0
  144.2855  169.0336  132.7899 C   0  0  0  0  0  0  0  0  0  0  0  0
  143.4476  168.0889  132.7166 O   0  0  0  0  0  0  0  0  0  0  0  0
  144.1162  170.2871  133.5009 C   0  0  0  0  0  0  0  0  0  0  0  0
  143.0969  170.7711  134.3412 C   0  0  0  0  0  0  0  0  0  0  0  0
  143.2145  171.9825  134.9884 C   0  0  0  0  0  0  0  0  0  0  0  0
  144.3672  172.7241  134.7949 C   0  0  0  0  0  0  0  0  0  0  0  0
  145.3924  172.2970  133.9824 C   0  0  0  0  0  0  0  0  0  0  0  0
  145.2320  171.0559  133.3387 C   0  0  0  0  0  0  0  0  0  0  0  0
  146.1305  167.9124  131.5271 C   0  0  0  0  0  0  0  0  0  0  0  0
  146.8108  166.9580  132.2534 C   0  0  0  0  0  0  0  0  0  0  0  0
  147.3734  165.8446  131.6248 C   0  0  0  0  0  0  0  0  0  0  0  0
  148.2402  164.6274  132.5412 Cl  0  0  0  0  0  0  0  0  0  0  0  0
  147.2627  165.6718  130.2629 C   0  0  0  0  0  0  0  0  0  0  0  0
  146.5854  166.6231  129.5374 C   0  0  0  0  0  0  0  0  0  0  0  0
  146.0229  167.7395  130.1724 C   0  0  0  0  0  0  0  0  0  0  0  0
  145.3527  168.7366  129.3167 C   0  0  0  0  0  0  0  0  0  0  0  0
  1  2  1  0
  2  3  1  0
  3  4  2  0
  3  5  1  0
  5  6  1  0
  6  7  2  0
  7  8  1  0
  8  9  2  0
  9 10  1  0
 10 11  2  0
 11 12  1  0
 12 13  2  0
 13 14  1  0
 10 15  1  0
 15 16  1  0
 15 17  1  0
 17 18  1  0
 18 19  2  0
 18 20  1  0
 20 21  2  0
 21 22  1  0
 22 23  2  0
 23 24  1  0
 24 25  2  0
 17 26  1  0
 26 27  2  0
 27 28  1  0
 28 29  1  0
 28 30  2  0
 30 31  1  0
 31 32  2  0
 32 33  1  0
 14  6  1  0
 25 15  1  0
 32 26  1  0
 13  8  1  0
 25 20  1  0
M  END
$$$$
