
     RDKit          3D

 33 37  0  0  0  0  0  0  0  0999 V2000
  193.0025  163.3807  116.9118 C   0  0  0  0  0  0  0  0  0  0  0  0
  192.3732  164.5394  116.3618 O   0  0  0  0  0  0  0  0  0  0  0  0
  192.3721  165.7704  116.9667 C   0  0  0  0  0  0  0  0  0  0  0  0
  192.8398  165.8766  118.1279 O   0  0  0  0  0  0  0  0  0  0  0  0
  191.8676  166.9504  116.3527 N   0  0  0  0  0  0  0  0  0  0  0  0
  191.7403  168.1464  117.1314 C   0  0  0  0  0  0  0  0  0  0  0  0
  190.9618  169.2084  116.8604 N   0  0  0  0  0  0  0  0  0  0  0  0
  191.0999  170.1556  117.8216 C   0  0  0  0  0  0  0  0  0  0  0  0
  190.5267  171.3957  117.9918 C   0  0  0  0  0  0  0  0  0  0  0  0
  190.8579  172.1828  119.1044 C   0  0  0  0  0  0  0  0  0  0  0  0
  191.7534  171.6704  119.9859 C   0  0  0  0  0  0  0  0  0  0  0  0
  192.3407  170.4067  119.8173 C   0  0  0  0  0  0  0  0  0  0  0  0
  192.0174  169.6305  118.7251 C   0  0  0  0  0  0  0  0  0  0  0  0
  192.3925  168.4015  118.2791 N   0  0  0  0  0  0  0  0  0  0  0  0
  190.2156  173.4723  119.2048 C   0  0  0  0  0  0  0  0  0  0  0  0
  189.3081  173.5264  118.0465 O   0  0  0  0  0  0  0  0  0  0  0  0
  189.3931  173.8231  120.2749 N   0  0  0  0  0  0  0  0  0  0  0  0
  189.5606  175.2234  120.5377 C   0  0  0  0  0  0  0  0  0  0  0  0
  188.8711  175.9421  121.3174 O   0  0  0  0  0  0  0  0  0  0  0  0
  190.6839  175.6568  119.7278 C   0  0  0  0  0  0  0  0  0  0  0  0
  191.3666  176.8832  119.6311 C   0  0  0  0  0  0  0  0  0  0  0  0
  192.4881  177.0204  118.8415 C   0  0  0  0  0  0  0  0  0  0  0  0
  192.9369  175.9171  118.1363 C   0  0  0  0  0  0  0  0  0  0  0  0
  192.3047  174.6961  118.1947 C   0  0  0  0  0  0  0  0  0  0  0  0
  191.1623  174.5988  119.0109 C   0  0  0  0  0  0  0  0  0  0  0  0
  188.4394  173.0465  121.0471 C   0  0  0  0  0  0  0  0  0  0  0  0
  187.2180  172.7106  120.5025 C   0  0  0  0  0  0  0  0  0  0  0  0
  186.2731  171.9985  121.2451 C   0  0  0  0  0  0  0  0  0  0  0  0
  184.7181  171.5683  120.5598 Cl  0  0  0  0  0  0  0  0  0  0  0  0
  186.5376  171.6138  122.5407 C   0  0  0  0  0  0  0  0  0  0  0  0
  187.7546  171.9489  123.0853 C   0  0  0  0  0  0  0  0  0  0  0  0
  188.6999  172.6643  122.3365 C   0  0  0  0  0  0  0  0  0  0  0  0
  189.9622  173.0241  123.0093 C   0  0  0  0  0  0  0  0  0  0  0  0
  1  2  1  0
  2  3  1  0
  3  4  2  0
  3  5  1  0
  5  6  1  0
  6  7  2  0
  7  8  1  0
  8  9  2  0
  9 10  1  0
 10 11  2  0
 11 12  1  0
 12 13  2  0
 13 14  1  0
 10 15  1  0
 15 16  1  0
 15 17  1  0
 17 18  1  0
 18 19  2  0
 18 20  1  0
 20 21  2  0
 21 22  1  0
 22 23  2  0
 23 24  1  0
 24 25  2  0
 17 26  1  0
 26 27  2  0
 27 28  1  0
 28 29  1  0
 28 30  2  0
 30 31  1  0
 31 32  2  0
 32 33  1  0
 14  6  1  0
 25 15  1  0
 32 26  1  0
 13  8  1  0
 25 20  1  0
M  END
$$$$
