
     RDKit          3D

 33 37  0  0  0  0  0  0  0  0999 V2000
  112.2691  142.8363  155.2675 C   0  0  0  0  0  0  0  0  0  0  0  0
  112.1642  144.2293  155.5668 O   0  0  0  0  0  0  0  0  0  0  0  0
  112.4568  144.7740  156.7911 C   0  0  0  0  0  0  0  0  0  0  0  0
  112.8617  144.0191  157.7102 O   0  0  0  0  0  0  0  0  0  0  0  0
  112.3287  146.1591  157.0891 N   0  0  0  0  0  0  0  0  0  0  0  0
  113.2467  146.7668  158.0062 C   0  0  0  0  0  0  0  0  0  0  0  0
  113.8479  146.1801  159.0559 N   0  0  0  0  0  0  0  0  0  0  0  0
  114.6510  147.0648  159.6980 C   0  0  0  0  0  0  0  0  0  0  0  0
  115.4617  146.9489  160.8047 C   0  0  0  0  0  0  0  0  0  0  0  0
  116.1992  148.0509  161.2616 C   0  0  0  0  0  0  0  0  0  0  0  0
  116.0754  149.2129  160.5717 C   0  0  0  0  0  0  0  0  0  0  0  0
  115.2505  149.3367  159.4427 C   0  0  0  0  0  0  0  0  0  0  0  0
  114.5244  148.2556  158.9910 C   0  0  0  0  0  0  0  0  0  0  0  0
  113.6602  148.0453  157.9620 N   0  0  0  0  0  0  0  0  0  0  0  0
  117.0206  147.8456  162.4314 C   0  0  0  0  0  0  0  0  0  0  0  0
  116.5624  146.5608  162.9861 O   0  0  0  0  0  0  0  0  0  0  0  0
  118.4048  147.6911  162.3625 N   0  0  0  0  0  0  0  0  0  0  0  0
  118.9876  148.2843  163.5315 C   0  0  0  0  0  0  0  0  0  0  0  0
  120.1921  148.2035  163.9093 O   0  0  0  0  0  0  0  0  0  0  0  0
  117.9171  148.9999  164.2003 C   0  0  0  0  0  0  0  0  0  0  0  0
  117.8972  149.8382  165.3301 C   0  0  0  0  0  0  0  0  0  0  0  0
  116.7474  150.4909  165.7197 C   0  0  0  0  0  0  0  0  0  0  0  0
  115.5980  150.3053  164.9711 C   0  0  0  0  0  0  0  0  0  0  0  0
  115.5636  149.4951  163.8593 C   0  0  0  0  0  0  0  0  0  0  0  0
  116.7582  148.8455  163.4966 C   0  0  0  0  0  0  0  0  0  0  0  0
  119.2487  147.0242  161.3868 C   0  0  0  0  0  0  0  0  0  0  0  0
  119.7575  147.7278  160.3158 C   0  0  0  0  0  0  0  0  0  0  0  0
  120.5379  147.0932  159.3465 C   0  0  0  0  0  0  0  0  0  0  0  0
  121.1879  147.9809  157.9818 Cl  0  0  0  0  0  0  0  0  0  0  0  0
  120.8190  145.7480  159.4360 C   0  0  0  0  0  0  0  0  0  0  0  0
  120.3115  145.0450  160.5029 C   0  0  0  0  0  0  0  0  0  0  0  0
  119.5280  145.6859  161.4733 C   0  0  0  0  0  0  0  0  0  0  0  0
  118.9838  144.8512  162.5608 C   0  0  0  0  0  0  0  0  0  0  0  0
  1  2  1  0
  2  3  1  0
  3  4  2  0
  3  5  1  0
  5  6  1  0
  6  7  2  0
  7  8  1  0
  8  9  2  0
  9 10  1  0
 10 11  2  0
 11 12  1  0
 12 13  2  0
 13 14  1  0
 10 15  1  0
 15 16  1  0
 15 17  1  0
 17 18  1  0
 18 19  2  0
 18 20  1  0
 20 21  2  0
 21 22  1  0
 22 23  2  0
 23 24  1  0
 24 25  2  0
 17 26  1  0
 26 27  2  0
 27 28  1  0
 28 29  1  0
 28 30  2  0
 30 31  1  0
 31 32  2  0
 32 33  1  0
 14  6  1  0
 25 15  1  0
 32 26  1  0
 13  8  1  0
 25 20  1  0
M  END
$$$$
