
     RDKit          3D

 33 37  0  0  0  0  0  0  0  0999 V2000
  196.2334  147.4481  125.8773 C   0  0  0  0  0  0  0  0  0  0  0  0
  197.0325  146.8634  126.9072 O   0  0  0  0  0  0  0  0  0  0  0  0
  197.8156  145.7513  126.7309 C   0  0  0  0  0  0  0  0  0  0  0  0
  197.2727  144.6777  126.3689 O   0  0  0  0  0  0  0  0  0  0  0  0
  199.2235  145.7376  126.9350 N   0  0  0  0  0  0  0  0  0  0  0  0
  199.8255  144.6167  127.5939 C   0  0  0  0  0  0  0  0  0  0  0  0
  199.2194  143.7391  128.4124 N   0  0  0  0  0  0  0  0  0  0  0  0
  200.1048  142.8096  128.8508 C   0  0  0  0  0  0  0  0  0  0  0  0
  199.9735  141.7249  129.6884 C   0  0  0  0  0  0  0  0  0  0  0  0
  201.0808  140.9137  129.9764 C   0  0  0  0  0  0  0  0  0  0  0  0
  202.2634  141.2458  129.3995 C   0  0  0  0  0  0  0  0  0  0  0  0
  202.4029  142.3505  128.5448 C   0  0  0  0  0  0  0  0  0  0  0  0
  201.3167  143.1497  128.2595 C   0  0  0  0  0  0  0  0  0  0  0  0
  201.1176  144.2578  127.4965 N   0  0  0  0  0  0  0  0  0  0  0  0
  200.8582  139.7995  130.8676 C   0  0  0  0  0  0  0  0  0  0  0  0
  201.1119  138.6070  130.0419 O   0  0  0  0  0  0  0  0  0  0  0  0
  201.6358  139.5761  132.0034 N   0  0  0  0  0  0  0  0  0  0  0  0
  200.7999  139.0112  133.0234 C   0  0  0  0  0  0  0  0  0  0  0  0
  201.1694  138.5234  134.1304 O   0  0  0  0  0  0  0  0  0  0  0  0
  199.4379  139.1098  132.5327 C   0  0  0  0  0  0  0  0  0  0  0  0
  198.1944  138.8098  133.1184 C   0  0  0  0  0  0  0  0  0  0  0  0
  197.0099  139.0868  132.4701 C   0  0  0  0  0  0  0  0  0  0  0  0
  197.0654  139.6727  131.2172 C   0  0  0  0  0  0  0  0  0  0  0  0
  198.2550  139.9844  130.5998 C   0  0  0  0  0  0  0  0  0  0  0  0
  199.4413  139.6835  131.2945 C   0  0  0  0  0  0  0  0  0  0  0  0
  203.0544  139.7678  132.2482 C   0  0  0  0  0  0  0  0  0  0  0  0
  203.5581  141.0367  132.4415 C   0  0  0  0  0  0  0  0  0  0  0  0
  204.9255  141.2432  132.6385 C   0  0  0  0  0  0  0  0  0  0  0  0
  205.5734  142.8534  132.8843 Cl  0  0  0  0  0  0  0  0  0  0  0  0
  205.8057  140.1840  132.6445 C   0  0  0  0  0  0  0  0  0  0  0  0
  205.3050  138.9184  132.4510 C   0  0  0  0  0  0  0  0  0  0  0  0
  203.9317  138.7158  132.2531 C   0  0  0  0  0  0  0  0  0  0  0  0
  203.4818  137.3328  132.0070 C   0  0  0  0  0  0  0  0  0  0  0  0
  1  2  1  0
  2  3  1  0
  3  4  2  0
  3  5  1  0
  5  6  1  0
  6  7  2  0
  7  8  1  0
  8  9  2  0
  9 10  1  0
 10 11  2  0
 11 12  1  0
 12 13  2  0
 13 14  1  0
 10 15  1  0
 15 16  1  0
 15 17  1  0
 17 18  1  0
 18 19  2  0
 18 20  1  0
 20 21  2  0
 21 22  1  0
 22 23  2  0
 23 24  1  0
 24 25  2  0
 17 26  1  0
 26 27  2  0
 27 28  1  0
 28 29  1  0
 28 30  2  0
 30 31  1  0
 31 32  2  0
 32 33  1  0
 14  6  1  0
 25 15  1  0
 32 26  1  0
 13  8  1  0
 25 20  1  0
M  END
$$$$
