
     RDKit          3D

 33 37  0  0  0  0  0  0  0  0999 V2000
  191.7429  153.2948  120.2505 C   0  0  0  0  0  0  0  0  0  0  0  0
  191.0544  153.9617  121.3099 O   0  0  0  0  0  0  0  0  0  0  0  0
  191.5085  155.1037  121.9191 C   0  0  0  0  0  0  0  0  0  0  0  0
  192.4298  155.7588  121.3710 O   0  0  0  0  0  0  0  0  0  0  0  0
  190.9941  155.5991  123.1495 N   0  0  0  0  0  0  0  0  0  0  0  0
  190.9987  157.0110  123.3934 C   0  0  0  0  0  0  0  0  0  0  0  0
  190.1906  157.6901  124.2261 N   0  0  0  0  0  0  0  0  0  0  0  0
  190.4849  159.0139  124.1981 C   0  0  0  0  0  0  0  0  0  0  0  0
  189.9520  160.0975  124.8595 C   0  0  0  0  0  0  0  0  0  0  0  0
  190.4614  161.3850  124.6360 C   0  0  0  0  0  0  0  0  0  0  0  0
  191.4848  161.5056  123.7530 C   0  0  0  0  0  0  0  0  0  0  0  0
  192.0319  160.4044  123.0760 C   0  0  0  0  0  0  0  0  0  0  0  0
  191.5338  159.1377  123.2934 C   0  0  0  0  0  0  0  0  0  0  0  0
  191.8280  157.8983  122.8166 N   0  0  0  0  0  0  0  0  0  0  0  0
  189.8427  162.4664  125.3661 C   0  0  0  0  0  0  0  0  0  0  0  0
  188.4943  161.9716  125.6908 O   0  0  0  0  0  0  0  0  0  0  0  0
  190.3240  162.9188  126.5942 N   0  0  0  0  0  0  0  0  0  0  0  0
  190.1062  164.3345  126.6747 C   0  0  0  0  0  0  0  0  0  0  0  0
  190.2564  165.0739  127.6900 O   0  0  0  0  0  0  0  0  0  0  0  0
  189.6768  164.7549  125.3540 C   0  0  0  0  0  0  0  0  0  0  0  0
  189.4068  166.0207  124.8024 C   0  0  0  0  0  0  0  0  0  0  0  0
  189.1007  166.1715  123.4668 C   0  0  0  0  0  0  0  0  0  0  0  0
  189.0632  165.0420  122.6675 C   0  0  0  0  0  0  0  0  0  0  0  0
  189.3174  163.7816  123.1577 C   0  0  0  0  0  0  0  0  0  0  0  0
  189.6239  163.6709  124.5268 C   0  0  0  0  0  0  0  0  0  0  0  0
  190.9082  162.2071  127.7172 C   0  0  0  0  0  0  0  0  0  0  0  0
  190.0950  161.6235  128.6654 C   0  0  0  0  0  0  0  0  0  0  0  0
  190.6399  160.9695  129.7730 C   0  0  0  0  0  0  0  0  0  0  0  0
  189.6125  160.2257  130.9830 Cl  0  0  0  0  0  0  0  0  0  0  0  0
  192.0039  160.8911  129.9460 C   0  0  0  0  0  0  0  0  0  0  0  0
  192.8159  161.4733  129.0018 C   0  0  0  0  0  0  0  0  0  0  0  0
  192.2646  162.1293  127.8919 C   0  0  0  0  0  0  0  0  0  0  0  0
  193.2033  162.7671  126.9496 C   0  0  0  0  0  0  0  0  0  0  0  0
  1  2  1  0
  2  3  1  0
  3  4  2  0
  3  5  1  0
  5  6  1  0
  6  7  2  0
  7  8  1  0
  8  9  2  0
  9 10  1  0
 10 11  2  0
 11 12  1  0
 12 13  2  0
 13 14  1  0
 10 15  1  0
 15 16  1  0
 15 17  1  0
 17 18  1  0
 18 19  2  0
 18 20  1  0
 20 21  2  0
 21 22  1  0
 22 23  2  0
 23 24  1  0
 24 25  2  0
 17 26  1  0
 26 27  2  0
 27 28  1  0
 28 29  1  0
 28 30  2  0
 30 31  1  0
 31 32  2  0
 32 33  1  0
 14  6  1  0
 25 15  1  0
 32 26  1  0
 13  8  1  0
 25 20  1  0
M  END
$$$$
