
     RDKit          3D

 33 37  0  0  0  0  0  0  0  0999 V2000
  186.0146  155.5476  129.4752 C   0  0  0  0  0  0  0  0  0  0  0  0
  186.2693  155.6257  130.8787 O   0  0  0  0  0  0  0  0  0  0  0  0
  185.2888  155.7537  131.8293 C   0  0  0  0  0  0  0  0  0  0  0  0
  184.0891  155.8070  131.4605 O   0  0  0  0  0  0  0  0  0  0  0  0
  185.5495  155.8308  133.2257 N   0  0  0  0  0  0  0  0  0  0  0  0
  185.8130  157.1076  133.8202 C   0  0  0  0  0  0  0  0  0  0  0  0
  186.3357  157.3404  135.0368 N   0  0  0  0  0  0  0  0  0  0  0  0
  186.4404  158.6741  135.2610 C   0  0  0  0  0  0  0  0  0  0  0  0
  186.9053  159.4014  136.3335 C   0  0  0  0  0  0  0  0  0  0  0  0
  186.8987  160.8034  136.2954 C   0  0  0  0  0  0  0  0  0  0  0  0
  186.4207  161.3940  135.1711 C   0  0  0  0  0  0  0  0  0  0  0  0
  185.9455  160.6574  134.0746 C   0  0  0  0  0  0  0  0  0  0  0  0
  185.9507  159.2795  134.1087 C   0  0  0  0  0  0  0  0  0  0  0  0
  185.5742  158.2990  133.2446 N   0  0  0  0  0  0  0  0  0  0  0  0
  187.3989  161.4894  137.4635 C   0  0  0  0  0  0  0  0  0  0  0  0
  188.2834  160.5111  138.1184 O   0  0  0  0  0  0  0  0  0  0  0  0
  188.1897  162.6353  137.3835 N   0  0  0  0  0  0  0  0  0  0  0  0
  187.8745  163.4843  138.4961 C   0  0  0  0  0  0  0  0  0  0  0  0
  188.4903  164.5279  138.8591 O   0  0  0  0  0  0  0  0  0  0  0  0
  186.7027  162.9071  139.1280 C   0  0  0  0  0  0  0  0  0  0  0  0
  185.8906  163.3371  140.1933 C   0  0  0  0  0  0  0  0  0  0  0  0
  184.7528  162.6469  140.5528 C   0  0  0  0  0  0  0  0  0  0  0  0
  184.4187  161.5092  139.8387 C   0  0  0  0  0  0  0  0  0  0  0  0
  185.1796  161.0453  138.7901 C   0  0  0  0  0  0  0  0  0  0  0  0
  186.3341  161.7778  138.4565 C   0  0  0  0  0  0  0  0  0  0  0  0
  189.2296  163.0201  136.4457 C   0  0  0  0  0  0  0  0  0  0  0  0
  188.9105  163.7471  135.3184 C   0  0  0  0  0  0  0  0  0  0  0  0
  189.8916  164.0915  134.3855 C   0  0  0  0  0  0  0  0  0  0  0  0
  189.4935  165.0149  132.9498 Cl  0  0  0  0  0  0  0  0  0  0  0  0
  191.2032  163.7133  134.5684 C   0  0  0  0  0  0  0  0  0  0  0  0
  191.5226  162.9877  135.6914 C   0  0  0  0  0  0  0  0  0  0  0  0
  190.5344  162.6437  136.6249 C   0  0  0  0  0  0  0  0  0  0  0  0
  190.9513  161.8249  137.7788 C   0  0  0  0  0  0  0  0  0  0  0  0
  1  2  1  0
  2  3  1  0
  3  4  2  0
  3  5  1  0
  5  6  1  0
  6  7  2  0
  7  8  1  0
  8  9  2  0
  9 10  1  0
 10 11  2  0
 11 12  1  0
 12 13  2  0
 13 14  1  0
 10 15  1  0
 15 16  1  0
 15 17  1  0
 17 18  1  0
 18 19  2  0
 18 20  1  0
 20 21  2  0
 21 22  1  0
 22 23  2  0
 23 24  1  0
 24 25  2  0
 17 26  1  0
 26 27  2  0
 27 28  1  0
 28 29  1  0
 28 30  2  0
 30 31  1  0
 31 32  2  0
 32 33  1  0
 14  6  1  0
 25 15  1  0
 32 26  1  0
 13  8  1  0
 25 20  1  0
M  END
$$$$
