
     RDKit          3D

 46 53  0  0  0  0  0  0  0  0999 V2000
  130.3623  140.1342  134.6460 C   0  0  0  0  0  0  0  0  0  0  0  0
  131.0117  141.5127  134.7284 C   0  0  2  0  0  0  0  0  0  0  0  0
  130.0355  142.3243  135.6179 C   0  0  0  0  0  0  0  0  0  0  0  0
  129.2491  143.0633  134.5638 C   0  0  1  0  0  0  0  0  0  0  0  0
  128.4008  144.1857  135.0910 C   0  0  2  0  0  0  0  0  0  0  0  0
  127.0545  143.5789  135.4053 C   0  0  0  0  0  0  0  0  0  0  0  0
  125.9680  144.5944  135.6928 C   0  0  0  0  0  0  0  0  0  0  0  0
  126.0182  145.6936  134.6796 C   0  0  0  0  0  0  0  0  0  0  0  0
  124.9180  146.0472  134.0816 C   0  0  0  0  0  0  0  0  0  0  0  0
  124.8734  147.1061  133.0744 C   0  0  0  0  0  0  0  0  0  0  0  0
  123.7844  147.3969  132.5402 O   0  0  0  0  0  0  0  0  0  0  0  0
  126.1262  147.7552  132.7635 C   0  0  0  0  0  0  0  0  0  0  0  0
  127.2389  147.4020  133.3673 C   0  0  0  0  0  0  0  0  0  0  0  0
  127.3042  146.3559  134.3785 C   0  0  1  0  0  0  0  0  0  0  0  0
  127.7368  147.0188  135.6963 C   0  0  0  0  0  0  0  0  0  0  0  0
  128.2453  145.2332  134.0618 C   0  0  0  0  0  0  0  0  0  0  0  0
  128.8787  145.2208  132.9196 C   0  0  0  0  0  0  0  0  0  0  0  0
  129.8338  144.1736  132.4860 C   0  0  0  0  0  0  0  0  0  0  0  0
  130.4125  143.5429  133.7021 C   0  0  1  0  0  0  0  0  0  0  0  0
  131.3560  144.4104  134.4735 C   0  0  0  0  0  0  0  0  0  0  0  0
  131.0224  142.1592  133.3892 C   0  0  1  0  0  0  0  0  0  0  0  0
  132.2652  142.2705  132.6552 C   0  0  0  0  0  0  0  0  0  0  0  0
  132.1869  143.0184  131.6203 O   0  0  0  0  0  0  0  0  0  0  0  0
  133.5871  141.6856  132.8604 C   0  0  0  0  0  0  0  0  0  0  0  0
  133.8223  140.3183  132.7994 N   0  0  0  0  0  0  0  0  0  0  0  0
  134.5200  139.7629  131.7127 C   0  0  0  0  0  0  0  0  0  0  0  0
  134.5475  138.2343  131.7516 C   0  0  0  0  0  0  0  0  0  0  0  0
  133.2027  137.7098  131.8038 N   0  0  0  0  0  0  0  0  0  0  0  0
  132.2526  138.4791  132.6125 C   0  0  0  0  0  0  0  0  0  0  0  0
  132.9463  139.4487  133.5201 C   0  0  0  0  0  0  0  0  0  0  0  0
  132.7596  136.5429  131.1500 C   0  0  0  0  0  0  0  0  0  0  0  0
  131.4727  136.4844  130.6631 C   0  0  0  0  0  0  0  0  0  0  0  0
  131.0022  135.3433  130.0224 C   0  0  0  0  0  0  0  0  0  0  0  0
  131.8474  134.3169  129.9024 N   0  0  0  0  0  0  0  0  0  0  0  0
  133.1178  134.3293  130.3645 C   0  0  0  0  0  0  0  0  0  0  0  0
  133.5239  135.4581  130.9767 N   0  0  0  0  0  0  0  0  0  0  0  0
  133.9678  133.2035  130.2125 N   0  0  0  0  0  0  0  0  0  0  0  0
  135.3380  133.1479  130.6676 C   0  0  0  0  0  0  0  0  0  0  0  0
  135.9503  131.9300  130.0389 C   0  0  0  0  0  0  0  0  0  0  0  0
  134.8742  131.2807  129.2018 C   0  0  0  0  0  0  0  0  0  0  0  0
  133.5772  131.9679  129.5815 C   0  0  0  0  0  0  0  0  0  0  0  0
  129.6783  135.2695  129.5134 N   0  0  0  0  0  0  0  0  0  0  0  0
  129.0391  134.1996  128.7921 C   0  0  0  0  0  0  0  0  0  0  0  0
  127.6988  134.1012  129.5334 C   0  0  0  0  0  0  0  0  0  0  0  0
  127.4641  135.5080  130.0702 C   0  0  0  0  0  0  0  0  0  0  0  0
  128.6831  136.3150  129.6372 C   0  0  0  0  0  0  0  0  0  0  0  0
  2  1  1  6
  2  3  1  0
  4  3  1  1
  4  5  1  0
  5  6  1  6
  6  7  1  0
  7  8  1  0
  8  9  2  0
  9 10  1  0
 10 11  2  0
 10 12  1  0
 12 13  2  0
 13 14  1  0
 14 15  1  1
 14 16  1  0
 16 17  2  0
 17 18  1  0
 18 19  1  0
 19 20  1  1
 19 21  1  0
 21 22  1  1
 22 23  2  0
 22 24  1  0
 24 25  1  0
 25 26  1  0
 26 27  1  0
 27 28  1  0
 28 29  1  0
 29 30  1  0
 28 31  1  0
 31 32  2  0
 32 33  1  0
 33 34  2  0
 34 35  1  0
 35 36  2  0
 35 37  1  0
 37 38  1  0
 38 39  1  0
 39 40  1  0
 40 41  1  0
 33 42  1  0
 42 43  1  0
 43 44  1  0
 44 45  1  0
 45 46  1  0
 21  2  1  0
 30 25  1  0
 36 31  1  0
 41 37  1  0
 46 42  1  0
 19  4  1  0
 16  5  1  0
 14  8  1  0
M  END
$$$$
