
     RDKit          3D

 46 53  0  0  0  0  0  0  0  0999 V2000
  127.9489  139.9951  135.5849 C   0  0  0  0  0  0  0  0  0  0  0  0
  128.6710  141.3098  135.8663 C   0  0  2  0  0  0  0  0  0  0  0  0
  127.5485  142.3736  135.7601 C   0  0  0  0  0  0  0  0  0  0  0  0
  127.7714  142.8724  134.3540 C   0  0  1  0  0  0  0  0  0  0  0  0
  127.0366  144.1390  134.0177 C   0  0  2  0  0  0  0  0  0  0  0  0
  125.7023  143.7105  133.4558 C   0  0  0  0  0  0  0  0  0  0  0  0
  124.9166  144.8283  132.8020 C   0  0  0  0  0  0  0  0  0  0  0  0
  125.8171  145.6359  131.9220 C   0  0  0  0  0  0  0  0  0  0  0  0
  125.4386  145.8943  130.7043 C   0  0  0  0  0  0  0  0  0  0  0  0
  126.2557  146.6701  129.7726 C   0  0  0  0  0  0  0  0  0  0  0  0
  125.8326  146.8830  128.6187 O   0  0  0  0  0  0  0  0  0  0  0  0
  127.5263  147.1459  130.2693 C   0  0  0  0  0  0  0  0  0  0  0  0
  127.9107  146.8886  131.4995 C   0  0  0  0  0  0  0  0  0  0  0  0
  127.1092  146.1250  132.4459 C   0  0  1  0  0  0  0  0  0  0  0  0
  126.7459  147.0679  133.6043 C   0  0  0  0  0  0  0  0  0  0  0  0
  127.7818  144.9049  132.9986 C   0  0  0  0  0  0  0  0  0  0  0  0
  128.9708  144.5712  132.5732 C   0  0  0  0  0  0  0  0  0  0  0  0
  129.7429  143.3943  133.0374 C   0  0  0  0  0  0  0  0  0  0  0  0
  129.2849  143.0527  134.4105 C   0  0  1  0  0  0  0  0  0  0  0  0
  129.6902  144.0272  135.4706 C   0  0  0  0  0  0  0  0  0  0  0  0
  129.6523  141.6010  134.7874 C   0  0  1  0  0  0  0  0  0  0  0  0
  131.0689  141.4522  135.0455 C   0  0  0  0  0  0  0  0  0  0  0  0
  131.4485  141.9727  136.1507 O   0  0  0  0  0  0  0  0  0  0  0  0
  132.1501  140.8336  134.2837 C   0  0  0  0  0  0  0  0  0  0  0  0
  132.0589  139.5541  133.7517 N   0  0  0  0  0  0  0  0  0  0  0  0
  131.6629  138.4732  134.5586 C   0  0  0  0  0  0  0  0  0  0  0  0
  131.7671  137.1302  133.8344 C   0  0  0  0  0  0  0  0  0  0  0  0
  133.1119  136.9258  133.3484 N   0  0  0  0  0  0  0  0  0  0  0  0
  133.7933  138.1219  132.8448 C   0  0  0  0  0  0  0  0  0  0  0  0
  132.8365  139.2469  132.5923 C   0  0  0  0  0  0  0  0  0  0  0  0
  133.7888  135.6902  133.3261 C   0  0  0  0  0  0  0  0  0  0  0  0
  135.1200  135.6515  132.9753 C   0  0  0  0  0  0  0  0  0  0  0  0
  135.8133  134.4467  132.9337 C   0  0  0  0  0  0  0  0  0  0  0  0
  135.1354  133.3399  133.2464 N   0  0  0  0  0  0  0  0  0  0  0  0
  133.8296  133.3299  133.5961 C   0  0  0  0  0  0  0  0  0  0  0  0
  133.2047  134.5227  133.6210 N   0  0  0  0  0  0  0  0  0  0  0  0
  133.1609  132.1190  133.9120 N   0  0  0  0  0  0  0  0  0  0  0  0
  131.7987  132.0388  134.3869 C   0  0  0  0  0  0  0  0  0  0  0  0
  131.6006  130.6380  134.8889 C   0  0  0  0  0  0  0  0  0  0  0  0
  132.9068  129.9091  134.6814 C   0  0  0  0  0  0  0  0  0  0  0  0
  133.7534  130.8097  133.8033 C   0  0  0  0  0  0  0  0  0  0  0  0
  137.1866  134.3917  132.5759 N   0  0  0  0  0  0  0  0  0  0  0  0
  138.0305  133.2415  132.3794 C   0  0  0  0  0  0  0  0  0  0  0  0
  138.7234  133.6038  131.0587 C   0  0  0  0  0  0  0  0  0  0  0  0
  138.7330  135.1276  131.0472 C   0  0  0  0  0  0  0  0  0  0  0  0
  138.0265  135.5466  132.3318 C   0  0  0  0  0  0  0  0  0  0  0  0
  2  1  1  6
  2  3  1  0
  4  3  1  1
  4  5  1  0
  5  6  1  6
  6  7  1  0
  7  8  1  0
  8  9  2  0
  9 10  1  0
 10 11  2  0
 10 12  1  0
 12 13  2  0
 13 14  1  0
 14 15  1  1
 14 16  1  0
 16 17  2  0
 17 18  1  0
 18 19  1  0
 19 20  1  1
 19 21  1  0
 21 22  1  1
 22 23  2  0
 22 24  1  0
 24 25  1  0
 25 26  1  0
 26 27  1  0
 27 28  1  0
 28 29  1  0
 29 30  1  0
 28 31  1  0
 31 32  2  0
 32 33  1  0
 33 34  2  0
 34 35  1  0
 35 36  2  0
 35 37  1  0
 37 38  1  0
 38 39  1  0
 39 40  1  0
 40 41  1  0
 33 42  1  0
 42 43  1  0
 43 44  1  0
 44 45  1  0
 45 46  1  0
 21  2  1  0
 30 25  1  0
 36 31  1  0
 41 37  1  0
 46 42  1  0
 19  4  1  0
 16  5  1  0
 14  8  1  0
M  END
$$$$
