
     RDKit          3D

 46 53  0  0  0  0  0  0  0  0999 V2000
  172.8186  149.2360  123.4215 C   0  0  0  0  0  0  0  0  0  0  0  0
  172.9971  147.8945  124.1267 C   0  0  2  0  0  0  0  0  0  0  0  0
  173.7132  148.2692  125.4495 C   0  0  0  0  0  0  0  0  0  0  0  0
  175.1440  147.9560  125.0886 C   0  0  1  0  0  0  0  0  0  0  0  0
  176.0884  147.9206  126.2566 C   0  0  2  0  0  0  0  0  0  0  0  0
  176.6269  149.3238  126.4003 C   0  0  0  0  0  0  0  0  0  0  0  0
  177.8020  149.4434  127.3485 C   0  0  0  0  0  0  0  0  0  0  0  0
  178.7816  148.3441  127.0856 C   0  0  0  0  0  0  0  0  0  0  0  0
  180.0400  148.6441  126.9463 C   0  0  0  0  0  0  0  0  0  0  0  0
  181.0660  147.6368  126.6815 C   0  0  0  0  0  0  0  0  0  0  0  0
  182.2554  147.9923  126.5598 O   0  0  0  0  0  0  0  0  0  0  0  0
  180.6159  146.2678  126.5776 C   0  0  0  0  0  0  0  0  0  0  0  0
  179.3459  145.9610  126.7201 C   0  0  0  0  0  0  0  0  0  0  0  0
  178.3092  146.9471  126.9919 C   0  0  1  0  0  0  0  0  0  0  0  0
  177.7213  146.6247  128.3752 C   0  0  0  0  0  0  0  0  0  0  0  0
  177.2002  146.9876  125.9844 C   0  0  0  0  0  0  0  0  0  0  0  0
  177.2527  146.2171  124.9311 C   0  0  0  0  0  0  0  0  0  0  0  0
  176.2251  146.1599  123.8647 C   0  0  0  0  0  0  0  0  0  0  0  0
  174.9266  146.5881  124.4500 C   0  0  1  0  0  0  0  0  0  0  0  0
  174.3171  145.6161  125.4099 C   0  0  0  0  0  0  0  0  0  0  0  0
  173.9276  147.0264  123.3571 C   0  0  1  0  0  0  0  0  0  0  0  0
  173.4085  145.8967  122.6157 C   0  0  0  0  0  0  0  0  0  0  0  0
  173.3598  144.8136  123.2947 O   0  0  0  0  0  0  0  0  0  0  0  0
  172.9407  145.7511  121.2403 C   0  0  0  0  0  0  0  0  0  0  0  0
  173.4610  146.4911  120.1866 N   0  0  0  0  0  0  0  0  0  0  0  0
  173.1688  147.8607  120.0649 C   0  0  0  0  0  0  0  0  0  0  0  0
  173.7073  148.4634  118.7665 C   0  0  0  0  0  0  0  0  0  0  0  0
  173.1941  147.7389  117.6270 N   0  0  0  0  0  0  0  0  0  0  0  0
  173.0650  146.2894  117.8023 C   0  0  0  0  0  0  0  0  0  0  0  0
  173.8320  145.7988  118.9923 C   0  0  0  0  0  0  0  0  0  0  0  0
  172.8233  148.3168  116.3966 C   0  0  0  0  0  0  0  0  0  0  0  0
  172.9650  149.6744  116.2140 C   0  0  0  0  0  0  0  0  0  0  0  0
  172.5984  150.2763  115.0150 C   0  0  0  0  0  0  0  0  0  0  0  0
  172.1074  149.4849  114.0585 N   0  0  0  0  0  0  0  0  0  0  0  0
  171.9505  148.1490  114.1931 C   0  0  0  0  0  0  0  0  0  0  0  0
  172.3209  147.6159  115.3732 N   0  0  0  0  0  0  0  0  0  0  0  0
  171.4165  147.3604  113.1413 N   0  0  0  0  0  0  0  0  0  0  0  0
  171.2092  145.9325  113.2161 C   0  0  0  0  0  0  0  0  0  0  0  0
  170.9367  145.4642  111.8161 C   0  0  0  0  0  0  0  0  0  0  0  0
  170.9922  146.6837  110.9272 C   0  0  0  0  0  0  0  0  0  0  0  0
  171.0130  147.8797  111.8588 C   0  0  0  0  0  0  0  0  0  0  0  0
  172.7408  151.6747  114.8117 N   0  0  0  0  0  0  0  0  0  0  0  0
  172.4039  152.4651  113.6562 C   0  0  0  0  0  0  0  0  0  0  0  0
  171.6602  153.6397  114.3067 C   0  0  0  0  0  0  0  0  0  0  0  0
  172.2602  153.7343  115.7043 C   0  0  0  0  0  0  0  0  0  0  0  0
  173.2795  152.6032  115.7846 C   0  0  0  0  0  0  0  0  0  0  0  0
  2  1  1  6
  2  3  1  0
  4  3  1  1
  4  5  1  0
  5  6  1  6
  6  7  1  0
  7  8  1  0
  8  9  2  0
  9 10  1  0
 10 11  2  0
 10 12  1  0
 12 13  2  0
 13 14  1  0
 14 15  1  1
 14 16  1  0
 16 17  2  0
 17 18  1  0
 18 19  1  0
 19 20  1  1
 19 21  1  0
 21 22  1  1
 22 23  2  0
 22 24  1  0
 24 25  1  0
 25 26  1  0
 26 27  1  0
 27 28  1  0
 28 29  1  0
 29 30  1  0
 28 31  1  0
 31 32  2  0
 32 33  1  0
 33 34  2  0
 34 35  1  0
 35 36  2  0
 35 37  1  0
 37 38  1  0
 38 39  1  0
 39 40  1  0
 40 41  1  0
 33 42  1  0
 42 43  1  0
 43 44  1  0
 44 45  1  0
 45 46  1  0
 21  2  1  0
 30 25  1  0
 36 31  1  0
 41 37  1  0
 46 42  1  0
 19  4  1  0
 16  5  1  0
 14  8  1  0
M  END
$$$$
