
     RDKit          3D

 46 53  0  0  0  0  0  0  0  0999 V2000
  127.3829  143.7409  132.4592 C   0  0  0  0  0  0  0  0  0  0  0  0
  126.8266  144.1188  133.8292 C   0  0  2  0  0  0  0  0  0  0  0  0
  125.8228  145.2574  133.5148 C   0  0  0  0  0  0  0  0  0  0  0  0
  126.6672  146.4668  133.8315 C   0  0  1  0  0  0  0  0  0  0  0  0
  125.9008  147.7558  133.9238 C   0  0  2  0  0  0  0  0  0  0  0  0
  125.9079  148.3456  132.5340 C   0  0  0  0  0  0  0  0  0  0  0  0
  125.4225  149.7788  132.4657 C   0  0  0  0  0  0  0  0  0  0  0  0
  126.0437  150.5791  133.5662 C   0  0  0  0  0  0  0  0  0  0  0  0
  126.6011  151.7186  133.2766 C   0  0  0  0  0  0  0  0  0  0  0  0
  127.2372  152.5642  134.2855 C   0  0  0  0  0  0  0  0  0  0  0  0
  127.7522  153.6465  133.9404 O   0  0  0  0  0  0  0  0  0  0  0  0
  127.2224  152.0717  135.6438 C   0  0  0  0  0  0  0  0  0  0  0  0
  126.6583  150.9222  135.9401 C   0  0  0  0  0  0  0  0  0  0  0  0
  126.0125  150.0686  134.9525 C   0  0  1  0  0  0  0  0  0  0  0  0
  124.5223  149.9877  135.3209 C   0  0  0  0  0  0  0  0  0  0  0  0
  126.5712  148.6810  134.8593 C   0  0  0  0  0  0  0  0  0  0  0  0
  127.6015  148.3465  135.5891 C   0  0  0  0  0  0  0  0  0  0  0  0
  128.2467  147.0122  135.5922 C   0  0  0  0  0  0  0  0  0  0  0  0
  127.2343  146.0076  135.1709 C   0  0  1  0  0  0  0  0  0  0  0  0
  126.1542  145.7438  136.1716 C   0  0  0  0  0  0  0  0  0  0  0  0
  127.8984  144.7035  134.6783 C   0  0  1  0  0  0  0  0  0  0  0  0
  128.4496  143.9318  135.7720 C   0  0  0  0  0  0  0  0  0  0  0  0
  127.9221  144.1973  136.9068 O   0  0  0  0  0  0  0  0  0  0  0  0
  129.4985  142.9180  135.8328 C   0  0  0  0  0  0  0  0  0  0  0  0
  129.8840  142.1674  134.7298 N   0  0  0  0  0  0  0  0  0  0  0  0
  129.2961  140.9153  134.4790 C   0  0  0  0  0  0  0  0  0  0  0  0
  129.9546  140.1804  133.3106 C   0  0  0  0  0  0  0  0  0  0  0  0
  131.3714  140.0296  133.5479 N   0  0  0  0  0  0  0  0  0  0  0  0
  132.0283  141.1616  134.2080 C   0  0  0  0  0  0  0  0  0  0  0  0
  131.1813  142.3971  134.1754 C   0  0  0  0  0  0  0  0  0  0  0  0
  132.1389  138.9017  133.1954 C   0  0  0  0  0  0  0  0  0  0  0  0
  131.5071  137.7667  132.7378 C   0  0  0  0  0  0  0  0  0  0  0  0
  132.2355  136.6337  132.3917 C   0  0  0  0  0  0  0  0  0  0  0  0
  133.5626  136.6963  132.5224 N   0  0  0  0  0  0  0  0  0  0  0  0
  134.2250  137.7877  132.9670 C   0  0  0  0  0  0  0  0  0  0  0  0
  133.4732  138.8579  133.2885 N   0  0  0  0  0  0  0  0  0  0  0  0
  135.6385  137.7917  133.0906 N   0  0  0  0  0  0  0  0  0  0  0  0
  136.4164  138.9286  133.5266 C   0  0  0  0  0  0  0  0  0  0  0  0
  137.8505  138.6126  133.2150 C   0  0  0  0  0  0  0  0  0  0  0  0
  137.8699  137.2417  132.5821 C   0  0  0  0  0  0  0  0  0  0  0  0
  136.4847  136.6631  132.7948 C   0  0  0  0  0  0  0  0  0  0  0  0
  131.5979  135.4570  131.9164 N   0  0  0  0  0  0  0  0  0  0  0  0
  130.2030  135.2243  131.6447 C   0  0  0  0  0  0  0  0  0  0  0  0
  130.2776  134.5457  130.2700 C   0  0  0  0  0  0  0  0  0  0  0  0
  131.6416  133.8663  130.2618 C   0  0  0  0  0  0  0  0  0  0  0  0
  132.2758  134.2154  131.6038 C   0  0  0  0  0  0  0  0  0  0  0  0
  2  1  1  6
  2  3  1  0
  4  3  1  1
  4  5  1  0
  5  6  1  6
  6  7  1  0
  7  8  1  0
  8  9  2  0
  9 10  1  0
 10 11  2  0
 10 12  1  0
 12 13  2  0
 13 14  1  0
 14 15  1  1
 14 16  1  0
 16 17  2  0
 17 18  1  0
 18 19  1  0
 19 20  1  1
 19 21  1  0
 21 22  1  1
 22 23  2  0
 22 24  1  0
 24 25  1  0
 25 26  1  0
 26 27  1  0
 27 28  1  0
 28 29  1  0
 29 30  1  0
 28 31  1  0
 31 32  2  0
 32 33  1  0
 33 34  2  0
 34 35  1  0
 35 36  2  0
 35 37  1  0
 37 38  1  0
 38 39  1  0
 39 40  1  0
 40 41  1  0
 33 42  1  0
 42 43  1  0
 43 44  1  0
 44 45  1  0
 45 46  1  0
 21  2  1  0
 30 25  1  0
 36 31  1  0
 41 37  1  0
 46 42  1  0
 19  4  1  0
 16  5  1  0
 14  8  1  0
M  END
$$$$
