
     RDKit          3D

 46 53  0  0  0  0  0  0  0  0999 V2000
  129.2415  139.7314  130.7147 C   0  0  0  0  0  0  0  0  0  0  0  0
  129.1684  139.6789  132.2381 C   0  0  2  0  0  0  0  0  0  0  0  0
  127.8894  140.4890  132.5710 C   0  0  0  0  0  0  0  0  0  0  0  0
  128.4919  141.8266  132.9223 C   0  0  1  0  0  0  0  0  0  0  0  0
  127.5444  142.7808  133.5923 C   0  0  2  0  0  0  0  0  0  0  0  0
  126.8962  143.5730  132.4824 C   0  0  0  0  0  0  0  0  0  0  0  0
  126.1083  144.7764  132.9574 C   0  0  0  0  0  0  0  0  0  0  0  0
  126.8967  145.5282  133.9823 C   0  0  0  0  0  0  0  0  0  0  0  0
  127.0300  146.8159  133.8517 C   0  0  0  0  0  0  0  0  0  0  0  0
  127.7874  147.6304  134.8008 C   0  0  0  0  0  0  0  0  0  0  0  0
  127.8749  148.8610  134.6174 O   0  0  0  0  0  0  0  0  0  0  0  0
  128.3946  146.9323  135.9106 C   0  0  0  0  0  0  0  0  0  0  0  0
  128.2600  145.6320  136.0467 C   0  0  0  0  0  0  0  0  0  0  0  0
  127.5039  144.8034  135.1179 C   0  0  1  0  0  0  0  0  0  0  0  0
  126.3206  144.2054  135.8959 C   0  0  0  0  0  0  0  0  0  0  0  0
  128.2869  143.6930  134.4852 C   0  0  0  0  0  0  0  0  0  0  0  0
  129.5623  143.5725  134.7393 C   0  0  0  0  0  0  0  0  0  0  0  0
  130.4470  142.5222  134.1818 C   0  0  0  0  0  0  0  0  0  0  0  0
  129.6077  141.3422  133.8426 C   0  0  1  0  0  0  0  0  0  0  0  0
  129.0715  140.5911  135.0199 C   0  0  0  0  0  0  0  0  0  0  0  0
  130.3169  140.4109  132.8356 C   0  0  1  0  0  0  0  0  0  0  0  0
  131.3974  139.6713  133.4528 C   0  0  0  0  0  0  0  0  0  0  0  0
  131.0248  138.9338  134.4293 O   0  0  0  0  0  0  0  0  0  0  0  0
  132.8314  139.6127  133.1842 C   0  0  0  0  0  0  0  0  0  0  0  0
  133.3507  139.4064  131.9129 N   0  0  0  0  0  0  0  0  0  0  0  0
  133.6744  140.4987  131.0893 C   0  0  0  0  0  0  0  0  0  0  0  0
  134.0891  140.0702  129.6810 C   0  0  0  0  0  0  0  0  0  0  0  0
  133.0480  139.2753  129.0720 N   0  0  0  0  0  0  0  0  0  0  0  0
  132.3384  138.3618  129.9723 C   0  0  0  0  0  0  0  0  0  0  0  0
  133.0737  138.1640  131.2627 C   0  0  0  0  0  0  0  0  0  0  0  0
  132.6833  139.3185  127.7117 C   0  0  0  0  0  0  0  0  0  0  0  0
  131.6522  138.5253  127.2596 C   0  0  0  0  0  0  0  0  0  0  0  0
  131.2752  138.5374  125.9210 C   0  0  0  0  0  0  0  0  0  0  0  0
  131.9526  139.3456  125.1022 N   0  0  0  0  0  0  0  0  0  0  0  0
  132.9706  140.1407  125.5010 C   0  0  0  0  0  0  0  0  0  0  0  0
  133.2958  140.0916  126.8071 N   0  0  0  0  0  0  0  0  0  0  0  0
  133.6576  140.9746  124.5814 N   0  0  0  0  0  0  0  0  0  0  0  0
  133.3819  141.0275  123.1641 C   0  0  0  0  0  0  0  0  0  0  0  0
  134.5184  141.7784  122.5331 C   0  0  0  0  0  0  0  0  0  0  0  0
  135.4633  142.1609  123.6473 C   0  0  0  0  0  0  0  0  0  0  0  0
  134.7230  141.8767  124.9396 C   0  0  0  0  0  0  0  0  0  0  0  0
  130.2126  137.7265  125.4410 N   0  0  0  0  0  0  0  0  0  0  0  0
  129.6763  137.6242  124.1086 C   0  0  0  0  0  0  0  0  0  0  0  0
  129.5941  136.1011  123.9378 C   0  0  0  0  0  0  0  0  0  0  0  0
  129.4174  135.5747  125.3570 C   0  0  0  0  0  0  0  0  0  0  0  0
  129.4386  136.8090  126.2521 C   0  0  0  0  0  0  0  0  0  0  0  0
  2  1  1  6
  2  3  1  0
  4  3  1  1
  4  5  1  0
  5  6  1  6
  6  7  1  0
  7  8  1  0
  8  9  2  0
  9 10  1  0
 10 11  2  0
 10 12  1  0
 12 13  2  0
 13 14  1  0
 14 15  1  1
 14 16  1  0
 16 17  2  0
 17 18  1  0
 18 19  1  0
 19 20  1  1
 19 21  1  0
 21 22  1  1
 22 23  2  0
 22 24  1  0
 24 25  1  0
 25 26  1  0
 26 27  1  0
 27 28  1  0
 28 29  1  0
 29 30  1  0
 28 31  1  0
 31 32  2  0
 32 33  1  0
 33 34  2  0
 34 35  1  0
 35 36  2  0
 35 37  1  0
 37 38  1  0
 38 39  1  0
 39 40  1  0
 40 41  1  0
 33 42  1  0
 42 43  1  0
 43 44  1  0
 44 45  1  0
 45 46  1  0
 21  2  1  0
 30 25  1  0
 36 31  1  0
 41 37  1  0
 46 42  1  0
 19  4  1  0
 16  5  1  0
 14  8  1  0
M  END
$$$$
