
     RDKit          3D

 46 53  0  0  0  0  0  0  0  0999 V2000
  131.2898  139.0405  130.6111 C   0  0  0  0  0  0  0  0  0  0  0  0
  130.0842  139.0556  131.5466 C   0  0  2  0  0  0  0  0  0  0  0  0
  129.1094  140.0535  130.8708 C   0  0  0  0  0  0  0  0  0  0  0  0
  129.3943  141.3023  131.6677 C   0  0  1  0  0  0  0  0  0  0  0  0
  128.3951  142.4075  131.4737 C   0  0  2  0  0  0  0  0  0  0  0  0
  128.9146  143.2432  130.3286 C   0  0  0  0  0  0  0  0  0  0  0  0
  128.1960  144.5644  130.1487 C   0  0  0  0  0  0  0  0  0  0  0  0
  128.0194  145.2321  131.4754 C   0  0  0  0  0  0  0  0  0  0  0  0
  128.3611  146.4814  131.6002 C   0  0  0  0  0  0  0  0  0  0  0  0
  128.2296  147.2127  132.8594 C   0  0  0  0  0  0  0  0  0  0  0  0
  128.5748  148.4102  132.9104 O   0  0  0  0  0  0  0  0  0  0  0  0
  127.6953  146.4760  133.9816 C   0  0  0  0  0  0  0  0  0  0  0  0
  127.3470  145.2147  133.8584 C   0  0  0  0  0  0  0  0  0  0  0  0
  127.4623  144.4700  132.6122 C   0  0  1  0  0  0  0  0  0  0  0  0
  126.0404  144.0782  132.1791 C   0  0  0  0  0  0  0  0  0  0  0  0
  128.3084  143.2355  132.6934 C   0  0  0  0  0  0  0  0  0  0  0  0
  128.9213  142.9418  133.8087 C   0  0  0  0  0  0  0  0  0  0  0  0
  129.7833  141.7548  134.0206 C   0  0  0  0  0  0  0  0  0  0  0  0
  129.3562  140.6966  133.0670 C   0  0  1  0  0  0  0  0  0  0  0  0
  128.0295  140.0749  133.3685 C   0  0  0  0  0  0  0  0  0  0  0  0
  130.4599  139.6360  132.8634 C   0  0  1  0  0  0  0  0  0  0  0  0
  130.5973  138.7716  134.0164 C   0  0  0  0  0  0  0  0  0  0  0  0
  129.4857  138.3095  134.4491 O   0  0  0  0  0  0  0  0  0  0  0  0
  131.7571  138.3344  134.7881 C   0  0  0  0  0  0  0  0  0  0  0  0
  132.9774  138.0250  134.2019 N   0  0  0  0  0  0  0  0  0  0  0  0
  133.0553  137.0544  133.1879 C   0  0  0  0  0  0  0  0  0  0  0  0
  134.4962  136.7492  132.7761 C   0  0  0  0  0  0  0  0  0  0  0  0
  135.2691  136.3365  133.9245 N   0  0  0  0  0  0  0  0  0  0  0  0
  134.9621  137.0304  135.1786 C   0  0  0  0  0  0  0  0  0  0  0  0
  134.1700  138.2811  134.9471 C   0  0  0  0  0  0  0  0  0  0  0  0
  136.2684  135.3432  133.9170 C   0  0  0  0  0  0  0  0  0  0  0  0
  136.4251  134.5461  132.8049 C   0  0  0  0  0  0  0  0  0  0  0  0
  137.3952  133.5502  132.7705 C   0  0  0  0  0  0  0  0  0  0  0  0
  138.1602  133.4039  133.8548 N   0  0  0  0  0  0  0  0  0  0  0  0
  138.0423  134.1622  134.9677 C   0  0  0  0  0  0  0  0  0  0  0  0
  137.0879  135.1123  134.9496 N   0  0  0  0  0  0  0  0  0  0  0  0
  138.8816  133.9546  136.0927 N   0  0  0  0  0  0  0  0  0  0  0  0
  139.8940  132.9272  136.1773 C   0  0  0  0  0  0  0  0  0  0  0  0
  140.3152  132.8567  137.6164 C   0  0  0  0  0  0  0  0  0  0  0  0
  139.5047  133.8902  138.3616 C   0  0  0  0  0  0  0  0  0  0  0  0
  138.8327  134.7395  137.3006 C   0  0  0  0  0  0  0  0  0  0  0  0
  137.5697  132.7222  131.6299 N   0  0  0  0  0  0  0  0  0  0  0  0
  136.8067  132.6817  130.4094 C   0  0  0  0  0  0  0  0  0  0  0  0
  137.9262  132.6678  129.3596 C   0  0  0  0  0  0  0  0  0  0  0  0
  139.1010  132.0110  130.0745 C   0  0  0  0  0  0  0  0  0  0  0  0
  138.6033  131.7172  131.4855 C   0  0  0  0  0  0  0  0  0  0  0  0
  2  1  1  6
  2  3  1  0
  4  3  1  6
  4  5  1  0
  5  6  1  6
  6  7  1  0
  7  8  1  0
  8  9  2  0
  9 10  1  0
 10 11  2  0
 10 12  1  0
 12 13  2  0
 13 14  1  0
 14 15  1  6
 14 16  1  0
 16 17  2  0
 17 18  1  0
 18 19  1  0
 19 20  1  1
 19 21  1  0
 21 22  1  1
 22 23  2  0
 22 24  1  0
 24 25  1  0
 25 26  1  0
 26 27  1  0
 27 28  1  0
 28 29  1  0
 29 30  1  0
 28 31  1  0
 31 32  2  0
 32 33  1  0
 33 34  2  0
 34 35  1  0
 35 36  2  0
 35 37  1  0
 37 38  1  0
 38 39  1  0
 39 40  1  0
 40 41  1  0
 33 42  1  0
 42 43  1  0
 43 44  1  0
 44 45  1  0
 45 46  1  0
 21  2  1  0
 30 25  1  0
 36 31  1  0
 41 37  1  0
 46 42  1  0
 19  4  1  0
 16  5  1  0
 14  8  1  0
M  END
$$$$
