
     RDKit          3D

 46 53  0  0  0  0  0  0  0  0999 V2000
  129.1006  143.4615  135.1485 C   0  0  0  0  0  0  0  0  0  0  0  0
  129.9788  144.6001  134.6372 C   0  0  2  0  0  0  0  0  0  0  0  0
  129.8664  145.6757  135.7477 C   0  0  0  0  0  0  0  0  0  0  0  0
  128.8206  146.5836  135.1494 C   0  0  1  0  0  0  0  0  0  0  0  0
  128.6817  147.9126  135.8363 C   0  0  2  0  0  0  0  0  0  0  0  0
  127.6354  147.7209  136.9078 C   0  0  0  0  0  0  0  0  0  0  0  0
  127.1491  149.0097  137.5378 C   0  0  0  0  0  0  0  0  0  0  0  0
  126.8796  150.0259  136.4737 C   0  0  0  0  0  0  0  0  0  0  0  0
  125.7458  150.6640  136.4874 C   0  0  0  0  0  0  0  0  0  0  0  0
  125.3944  151.6687  135.4850 C   0  0  0  0  0  0  0  0  0  0  0  0
  124.2905  152.2449  135.5570 O   0  0  0  0  0  0  0  0  0  0  0  0
  126.3769  151.9275  134.4577 C   0  0  0  0  0  0  0  0  0  0  0  0
  127.5241  151.2864  134.4423 C   0  0  0  0  0  0  0  0  0  0  0  0
  127.8973  150.2882  135.4350 C   0  0  1  0  0  0  0  0  0  0  0  0
  129.1196  150.8305  136.1932 C   0  0  0  0  0  0  0  0  0  0  0  0
  128.2264  148.9373  134.8754 C   0  0  0  0  0  0  0  0  0  0  0  0
  128.1044  148.7193  133.5934 C   0  0  0  0  0  0  0  0  0  0  0  0
  128.3976  147.4342  132.9156 C   0  0  0  0  0  0  0  0  0  0  0  0
  129.3899  146.6929  133.7386 C   0  0  1  0  0  0  0  0  0  0  0  0
  130.7685  147.2736  133.7382 C   0  0  0  0  0  0  0  0  0  0  0  0
  129.3962  145.1861  133.4007 C   0  0  1  0  0  0  0  0  0  0  0  0
  130.0165  144.9227  132.1196 C   0  0  0  0  0  0  0  0  0  0  0  0
  130.9130  145.7761  131.7963 O   0  0  0  0  0  0  0  0  0  0  0  0
  129.8093  143.8788  131.1200 C   0  0  0  0  0  0  0  0  0  0  0  0
  129.7663  142.5284  131.4406 N   0  0  0  0  0  0  0  0  0  0  0  0
  128.5963  141.9591  131.9730 C   0  0  0  0  0  0  0  0  0  0  0  0
  128.7921  140.5032  132.3982 C   0  0  0  0  0  0  0  0  0  0  0  0
  129.8759  140.3997  133.3476 N   0  0  0  0  0  0  0  0  0  0  0  0
  131.0175  141.2868  133.1065 C   0  0  0  0  0  0  0  0  0  0  0  0
  130.9983  141.8606  131.7225 C   0  0  0  0  0  0  0  0  0  0  0  0
  129.9065  139.5276  134.4539 C   0  0  0  0  0  0  0  0  0  0  0  0
  128.7600  138.8608  134.8248 C   0  0  0  0  0  0  0  0  0  0  0  0
  128.7551  138.0013  135.9181 C   0  0  0  0  0  0  0  0  0  0  0  0
  129.9021  137.8540  136.5853 N   0  0  0  0  0  0  0  0  0  0  0  0
  131.0506  138.4874  136.2579 C   0  0  0  0  0  0  0  0  0  0  0  0
  131.0016  139.3081  135.1912 N   0  0  0  0  0  0  0  0  0  0  0  0
  132.2380  138.2950  137.0103 N   0  0  0  0  0  0  0  0  0  0  0  0
  132.3285  137.4765  138.1975 C   0  0  0  0  0  0  0  0  0  0  0  0
  133.6463  137.7973  138.8410 C   0  0  0  0  0  0  0  0  0  0  0  0
  134.3168  138.8353  137.9731 C   0  0  0  0  0  0  0  0  0  0  0  0
  133.5099  138.8930  136.6908 C   0  0  0  0  0  0  0  0  0  0  0  0
  127.5809  137.3055  136.3109 N   0  0  0  0  0  0  0  0  0  0  0  0
  127.4264  136.2627  137.2918 C   0  0  0  0  0  0  0  0  0  0  0  0
  126.1937  136.7583  138.0603 C   0  0  0  0  0  0  0  0  0  0  0  0
  125.4205  137.5807  137.0365 C   0  0  0  0  0  0  0  0  0  0  0  0
  126.2592  137.5352  135.7639 C   0  0  0  0  0  0  0  0  0  0  0  0
  2  1  1  1
  2  3  1  0
  4  3  1  1
  4  5  1  0
  5  6  1  1
  6  7  1  0
  7  8  1  0
  8  9  2  0
  9 10  1  0
 10 11  2  0
 10 12  1  0
 12 13  2  0
 13 14  1  0
 14 15  1  1
 14 16  1  0
 16 17  2  0
 17 18  1  0
 18 19  1  0
 19 20  1  1
 19 21  1  0
 21 22  1  6
 22 23  2  0
 22 24  1  0
 24 25  1  0
 25 26  1  0
 26 27  1  0
 27 28  1  0
 28 29  1  0
 29 30  1  0
 28 31  1  0
 31 32  2  0
 32 33  1  0
 33 34  2  0
 34 35  1  0
 35 36  2  0
 35 37  1  0
 37 38  1  0
 38 39  1  0
 39 40  1  0
 40 41  1  0
 33 42  1  0
 42 43  1  0
 43 44  1  0
 44 45  1  0
 45 46  1  0
 21  2  1  0
 30 25  1  0
 36 31  1  0
 41 37  1  0
 46 42  1  0
 19  4  1  0
 16  5  1  0
 14  8  1  0
M  END
$$$$
