
     RDKit          3D

 46 53  0  0  0  0  0  0  0  0999 V2000
  194.4147  163.4675  128.5031 C   0  0  0  0  0  0  0  0  0  0  0  0
  193.4503  164.2866  129.3563 C   0  0  2  0  0  0  0  0  0  0  0  0
  193.7565  163.8214  130.8029 C   0  0  0  0  0  0  0  0  0  0  0  0
  192.6506  162.8168  131.0111 C   0  0  1  0  0  0  0  0  0  0  0  0
  192.4638  162.3812  132.4368 C   0  0  2  0  0  0  0  0  0  0  0  0
  193.3463  161.1702  132.6219 C   0  0  0  0  0  0  0  0  0  0  0  0
  193.0991  160.4135  133.9106 C   0  0  0  0  0  0  0  0  0  0  0  0
  191.6287  160.2446  134.1272 C   0  0  0  0  0  0  0  0  0  0  0  0
  191.1684  159.0629  134.4178 C   0  0  0  0  0  0  0  0  0  0  0  0
  189.7468  158.8033  134.6400 C   0  0  0  0  0  0  0  0  0  0  0  0
  189.3721  157.6462  134.9167 O   0  0  0  0  0  0  0  0  0  0  0  0
  188.8568  159.9351  134.5199 C   0  0  0  0  0  0  0  0  0  0  0  0
  189.3188  161.1306  134.2288 C   0  0  0  0  0  0  0  0  0  0  0  0
  190.7310  161.4126  134.0114 C   0  0  1  0  0  0  0  0  0  0  0  0
  191.1807  162.3804  135.1178 C   0  0  0  0  0  0  0  0  0  0  0  0
  191.0546  162.0098  132.6753 C   0  0  0  0  0  0  0  0  0  0  0  0
  190.1059  162.1781  131.7935 C   0  0  0  0  0  0  0  0  0  0  0  0
  190.2917  162.7564  130.4416 C   0  0  0  0  0  0  0  0  0  0  0  0
  191.4849  163.6433  130.4776 C   0  0  1  0  0  0  0  0  0  0  0  0
  191.3036  164.9124  131.2484 C   0  0  0  0  0  0  0  0  0  0  0  0
  192.0447  163.9006  129.0616 C   0  0  1  0  0  0  0  0  0  0  0  0
  191.1984  164.7955  128.3010 C   0  0  0  0  0  0  0  0  0  0  0  0
  190.8025  165.8164  128.9624 O   0  0  0  0  0  0  0  0  0  0  0  0
  190.7000  164.7529  126.9293 C   0  0  0  0  0  0  0  0  0  0  0  0
  190.3423  163.5701  126.2954 N   0  0  0  0  0  0  0  0  0  0  0  0
  190.7883  162.3326  126.7912 C   0  0  0  0  0  0  0  0  0  0  0  0
  190.4160  161.1646  125.8769 C   0  0  0  0  0  0  0  0  0  0  0  0
  190.9317  161.3858  124.5458 N   0  0  0  0  0  0  0  0  0  0  0  0
  190.8907  162.7722  124.0718 C   0  0  0  0  0  0  0  0  0  0  0  0
  189.9889  163.6247  124.9115 C   0  0  0  0  0  0  0  0  0  0  0  0
  191.4531  160.3868  123.7000 C   0  0  0  0  0  0  0  0  0  0  0  0
  191.8758  159.1925  124.2401 C   0  0  0  0  0  0  0  0  0  0  0  0
  192.4047  158.1908  123.4333 C   0  0  0  0  0  0  0  0  0  0  0  0
  192.4831  158.4380  122.1236 N   0  0  0  0  0  0  0  0  0  0  0  0
  192.0811  159.5941  121.5499 C   0  0  0  0  0  0  0  0  0  0  0  0
  191.5763  160.5312  122.3752 N   0  0  0  0  0  0  0  0  0  0  0  0
  192.1957  159.8009  120.1509 N   0  0  0  0  0  0  0  0  0  0  0  0
  192.7014  158.8190  119.2194 C   0  0  0  0  0  0  0  0  0  0  0  0
  192.9453  159.5401  117.9255 C   0  0  0  0  0  0  0  0  0  0  0  0
  192.5559  160.9822  118.1472 C   0  0  0  0  0  0  0  0  0  0  0  0
  191.8252  161.0189  119.4751 C   0  0  0  0  0  0  0  0  0  0  0  0
  192.8426  156.9535  123.9759 N   0  0  0  0  0  0  0  0  0  0  0  0
  193.5097  155.8580  123.3213 C   0  0  0  0  0  0  0  0  0  0  0  0
  194.6382  155.5595  124.3179 C   0  0  0  0  0  0  0  0  0  0  0  0
  194.0766  156.0044  125.6629 C   0  0  0  0  0  0  0  0  0  0  0  0
  192.6870  156.5539  125.3597 C   0  0  0  0  0  0  0  0  0  0  0  0
  2  1  1  6
  2  3  1  0
  4  3  1  1
  4  5  1  0
  5  6  1  6
  6  7  1  0
  7  8  1  0
  8  9  2  0
  9 10  1  0
 10 11  2  0
 10 12  1  0
 12 13  2  0
 13 14  1  0
 14 15  1  1
 14 16  1  0
 16 17  2  0
 17 18  1  0
 18 19  1  0
 19 20  1  1
 19 21  1  0
 21 22  1  1
 22 23  2  0
 22 24  1  0
 24 25  1  0
 25 26  1  0
 26 27  1  0
 27 28  1  0
 28 29  1  0
 29 30  1  0
 28 31  1  0
 31 32  2  0
 32 33  1  0
 33 34  2  0
 34 35  1  0
 35 36  2  0
 35 37  1  0
 37 38  1  0
 38 39  1  0
 39 40  1  0
 40 41  1  0
 33 42  1  0
 42 43  1  0
 43 44  1  0
 44 45  1  0
 45 46  1  0
 21  2  1  0
 30 25  1  0
 36 31  1  0
 41 37  1  0
 46 42  1  0
 19  4  1  0
 16  5  1  0
 14  8  1  0
M  END
$$$$
