
     RDKit          3D

 46 53  0  0  0  0  0  0  0  0999 V2000
  165.8934  149.0959  125.7847 C   0  0  0  0  0  0  0  0  0  0  0  0
  167.1885  148.5824  125.1618 C   0  0  2  0  0  0  0  0  0  0  0  0
  166.7187  147.4266  124.2419 C   0  0  0  0  0  0  0  0  0  0  0  0
  166.9978  146.2371  125.1267 C   0  0  1  0  0  0  0  0  0  0  0  0
  166.9371  144.9099  124.4251 C   0  0  2  0  0  0  0  0  0  0  0  0
  165.5095  144.4355  124.5531 C   0  0  0  0  0  0  0  0  0  0  0  0
  165.2971  142.9910  124.1495 C   0  0  0  0  0  0  0  0  0  0  0  0
  166.3722  142.1347  124.7398 C   0  0  0  0  0  0  0  0  0  0  0  0
  166.0339  141.0502  125.3740 C   0  0  0  0  0  0  0  0  0  0  0  0
  167.0155  140.1569  125.9875 C   0  0  0  0  0  0  0  0  0  0  0  0
  166.6236  139.1318  126.5801 O   0  0  0  0  0  0  0  0  0  0  0  0
  168.4036  140.5366  125.8590 C   0  0  0  0  0  0  0  0  0  0  0  0
  168.7489  141.6303  125.2170 C   0  0  0  0  0  0  0  0  0  0  0  0
  167.7885  142.5293  124.5922 C   0  0  1  0  0  0  0  0  0  0  0  0
  168.0590  142.5092  123.0791 C   0  0  0  0  0  0  0  0  0  0  0  0
  167.8418  143.9449  125.0817 C   0  0  0  0  0  0  0  0  0  0  0  0
  168.6642  144.2678  126.0436 C   0  0  0  0  0  0  0  0  0  0  0  0
  168.8150  145.6266  126.6159 C   0  0  0  0  0  0  0  0  0  0  0  0
  168.4045  146.6128  125.5812 C   0  0  1  0  0  0  0  0  0  0  0  0
  169.3463  146.7431  124.4263 C   0  0  0  0  0  0  0  0  0  0  0  0
  168.0612  147.9825  126.2059 C   0  0  1  0  0  0  0  0  0  0  0  0
  169.2467  148.6885  126.6438 C   0  0  0  0  0  0  0  0  0  0  0  0
  170.2814  148.4493  125.9307 O   0  0  0  0  0  0  0  0  0  0  0  0
  169.4929  149.6113  127.7482 C   0  0  0  0  0  0  0  0  0  0  0  0
  168.4717  150.2726  128.4178 N   0  0  0  0  0  0  0  0  0  0  0  0
  167.1632  150.2689  127.9040 C   0  0  0  0  0  0  0  0  0  0  0  0
  166.2174  151.1706  128.6985 C   0  0  0  0  0  0  0  0  0  0  0  0
  166.7326  152.5192  128.7463 N   0  0  0  0  0  0  0  0  0  0  0  0
  168.1883  152.6383  128.8706 C   0  0  0  0  0  0  0  0  0  0  0  0
  168.8217  151.3476  129.2924 C   0  0  0  0  0  0  0  0  0  0  0  0
  165.9513  153.6902  128.6850 C   0  0  0  0  0  0  0  0  0  0  0  0
  164.5911  153.6101  128.8855 C   0  0  0  0  0  0  0  0  0  0  0  0
  163.7913  154.7460  128.8213 C   0  0  0  0  0  0  0  0  0  0  0  0
  164.3969  155.9064  128.5587 N   0  0  0  0  0  0  0  0  0  0  0  0
  165.7274  156.0325  128.3552 C   0  0  0  0  0  0  0  0  0  0  0  0
  166.4567  154.9026  128.4285 N   0  0  0  0  0  0  0  0  0  0  0  0
  166.3131  157.2937  128.0733 N   0  0  0  0  0  0  0  0  0  0  0  0
  167.7181  157.4999  127.8067 C   0  0  0  0  0  0  0  0  0  0  0  0
  167.9556  158.9805  127.8752 C   0  0  0  0  0  0  0  0  0  0  0  0
  166.6260  159.6236  128.1902 C   0  0  0  0  0  0  0  0  0  0  0  0
  165.5840  158.5358  128.0186 C   0  0  0  0  0  0  0  0  0  0  0  0
  162.3877  154.6789  129.0279 N   0  0  0  0  0  0  0  0  0  0  0  0
  161.5995  153.6084  129.5811 C   0  0  0  0  0  0  0  0  0  0  0  0
  160.7074  154.3753  130.5669 C   0  0  0  0  0  0  0  0  0  0  0  0
  160.5996  155.7713  129.9655 C   0  0  0  0  0  0  0  0  0  0  0  0
  161.4504  155.7340  128.7007 C   0  0  0  0  0  0  0  0  0  0  0  0
  2  1  1  1
  2  3  1  0
  4  3  1  6
  4  5  1  0
  5  6  1  1
  6  7  1  0
  7  8  1  0
  8  9  2  0
  9 10  1  0
 10 11  2  0
 10 12  1  0
 12 13  2  0
 13 14  1  0
 14 15  1  6
 14 16  1  0
 16 17  2  0
 17 18  1  0
 18 19  1  0
 19 20  1  6
 19 21  1  0
 21 22  1  6
 22 23  2  0
 22 24  1  0
 24 25  1  0
 25 26  1  0
 26 27  1  0
 27 28  1  0
 28 29  1  0
 29 30  1  0
 28 31  1  0
 31 32  2  0
 32 33  1  0
 33 34  2  0
 34 35  1  0
 35 36  2  0
 35 37  1  0
 37 38  1  0
 38 39  1  0
 39 40  1  0
 40 41  1  0
 33 42  1  0
 42 43  1  0
 43 44  1  0
 44 45  1  0
 45 46  1  0
 21  2  1  0
 30 25  1  0
 36 31  1  0
 41 37  1  0
 46 42  1  0
 19  4  1  0
 16  5  1  0
 14  8  1  0
M  END
$$$$
