
     RDKit          3D

 46 53  0  0  0  0  0  0  0  0999 V2000
  132.1282  142.8178  134.9934 C   0  0  0  0  0  0  0  0  0  0  0  0
  131.1725  141.8367  135.6665 C   0  0  2  0  0  0  0  0  0  0  0  0
  131.4989  140.4829  134.9857 C   0  0  0  0  0  0  0  0  0  0  0  0
  130.3988  140.4183  133.9554 C   0  0  1  0  0  0  0  0  0  0  0  0
  130.2320  139.0744  133.3046 C   0  0  2  0  0  0  0  0  0  0  0  0
  131.1206  139.0889  132.0841 C   0  0  0  0  0  0  0  0  0  0  0  0
  130.8925  137.9291  131.1368 C   0  0  0  0  0  0  0  0  0  0  0  0
  129.4256  137.7230  130.9290 C   0  0  0  0  0  0  0  0  0  0  0  0
  128.9728  137.6122  129.7143 C   0  0  0  0  0  0  0  0  0  0  0  0
  127.5550  137.4151  129.4164 C   0  0  0  0  0  0  0  0  0  0  0  0
  127.1875  137.3152  128.2286 O   0  0  0  0  0  0  0  0  0  0  0  0
  126.6601  137.3485  130.5487 C   0  0  0  0  0  0  0  0  0  0  0  0
  127.1145  137.4577  131.7771 C   0  0  0  0  0  0  0  0  0  0  0  0
  128.5228  137.6465  132.0963 C   0  0  1  0  0  0  0  0  0  0  0  0
  128.9839  136.4099  132.8846 C   0  0  0  0  0  0  0  0  0  0  0  0
  128.8271  138.8786  132.8938 C   0  0  0  0  0  0  0  0  0  0  0  0
  127.8666  139.7122  133.1909 C   0  0  0  0  0  0  0  0  0  0  0  0
  128.0330  140.9611  133.9714 C   0  0  0  0  0  0  0  0  0  0  0  0
  129.2238  140.8037  134.8482 C   0  0  1  0  0  0  0  0  0  0  0  0
  129.0486  139.8445  135.9826 C   0  0  0  0  0  0  0  0  0  0  0  0
  129.7643  142.1699  135.3233 C   0  0  1  0  0  0  0  0  0  0  0  0
  128.9055  142.7732  136.3203 C   0  0  0  0  0  0  0  0  0  0  0  0
  128.7985  142.0843  137.3928 O   0  0  0  0  0  0  0  0  0  0  0  0
  128.1288  144.0095  136.3345 C   0  0  0  0  0  0  0  0  0  0  0  0
  128.4756  145.1243  135.5826 N   0  0  0  0  0  0  0  0  0  0  0  0
  129.2672  146.1428  136.1415 C   0  0  0  0  0  0  0  0  0  0  0  0
  129.4156  147.3484  135.2123 C   0  0  0  0  0  0  0  0  0  0  0  0
  128.1161  147.8657  134.8511 N   0  0  0  0  0  0  0  0  0  0  0  0
  127.0694  146.8614  134.6407 C   0  0  0  0  0  0  0  0  0  0  0  0
  127.6385  145.4845  134.4815 C   0  0  0  0  0  0  0  0  0  0  0  0
  127.8003  149.2296  134.6911 C   0  0  0  0  0  0  0  0  0  0  0  0
  126.5869  149.5860  134.1458 C   0  0  0  0  0  0  0  0  0  0  0  0
  126.2497  150.9231  133.9653 C   0  0  0  0  0  0  0  0  0  0  0  0
  127.1479  151.8364  134.3413 N   0  0  0  0  0  0  0  0  0  0  0  0
  128.3501  151.5333  134.8802 C   0  0  0  0  0  0  0  0  0  0  0  0
  128.6273  150.2243  135.0338 N   0  0  0  0  0  0  0  0  0  0  0  0
  129.2666  152.5496  135.2548 N   0  0  0  0  0  0  0  0  0  0  0  0
  129.0926  153.9538  134.9625 C   0  0  0  0  0  0  0  0  0  0  0  0
  130.4089  154.6178  135.2456 C   0  0  0  0  0  0  0  0  0  0  0  0
  131.3524  153.5373  135.7176 C   0  0  0  0  0  0  0  0  0  0  0  0
  130.4934  152.3145  135.9738 C   0  0  0  0  0  0  0  0  0  0  0  0
  125.0014  151.3056  133.4063 N   0  0  0  0  0  0  0  0  0  0  0  0
  123.9228  150.4759  132.9353 C   0  0  0  0  0  0  0  0  0  0  0  0
  122.7145  151.1601  133.5894 C   0  0  0  0  0  0  0  0  0  0  0  0
  123.1452  152.6140  133.7415 C   0  0  0  0  0  0  0  0  0  0  0  0
  124.5694  152.6730  133.2005 C   0  0  0  0  0  0  0  0  0  0  0  0
  2  1  1  6
  2  3  1  0
  4  3  1  1
  4  5  1  0
  5  6  1  6
  6  7  1  0
  7  8  1  0
  8  9  2  0
  9 10  1  0
 10 11  2  0
 10 12  1  0
 12 13  2  0
 13 14  1  0
 14 15  1  1
 14 16  1  0
 16 17  2  0
 17 18  1  0
 18 19  1  0
 19 20  1  1
 19 21  1  0
 21 22  1  1
 22 23  2  0
 22 24  1  0
 24 25  1  0
 25 26  1  0
 26 27  1  0
 27 28  1  0
 28 29  1  0
 29 30  1  0
 28 31  1  0
 31 32  2  0
 32 33  1  0
 33 34  2  0
 34 35  1  0
 35 36  2  0
 35 37  1  0
 37 38  1  0
 38 39  1  0
 39 40  1  0
 40 41  1  0
 33 42  1  0
 42 43  1  0
 43 44  1  0
 44 45  1  0
 45 46  1  0
 21  2  1  0
 30 25  1  0
 36 31  1  0
 41 37  1  0
 46 42  1  0
 19  4  1  0
 16  5  1  0
 14  8  1  0
M  END
$$$$
