
     RDKit          3D

 46 53  0  0  0  0  0  0  0  0999 V2000
  204.7001  135.0561  138.5558 C   0  0  0  0  0  0  0  0  0  0  0  0
  204.8228  135.6612  137.1602 C   0  0  2  0  0  0  0  0  0  0  0  0
  203.5320  135.1902  136.4426 C   0  0  0  0  0  0  0  0  0  0  0  0
  204.0592  134.0047  135.6732 C   0  0  1  0  0  0  0  0  0  0  0  0
  203.1261  133.4804  134.6188 C   0  0  2  0  0  0  0  0  0  0  0  0
  202.2799  132.4292  135.2960 C   0  0  0  0  0  0  0  0  0  0  0  0
  201.4594  131.5847  134.3431 C   0  0  0  0  0  0  0  0  0  0  0  0
  202.3038  131.1599  133.1839 C   0  0  0  0  0  0  0  0  0  0  0  0
  202.3112  129.9055  132.8385 C   0  0  0  0  0  0  0  0  0  0  0  0
  203.1101  129.3993  131.7236 C   0  0  0  0  0  0  0  0  0  0  0  0
  203.0703  128.1843  131.4443 O   0  0  0  0  0  0  0  0  0  0  0  0
  203.9079  130.3684  131.0081 C   0  0  0  0  0  0  0  0  0  0  0  0
  203.9010  131.6367  131.3529 C   0  0  0  0  0  0  0  0  0  0  0  0
  203.1070  132.1630  132.4545 C   0  0  1  0  0  0  0  0  0  0  0  0
  202.0848  133.1425  131.8556 C   0  0  0  0  0  0  0  0  0  0  0  0
  203.8952  132.8656  133.5183 C   0  0  0  0  0  0  0  0  0  0  0  0
  205.1980  132.9101  133.4370 C   0  0  0  0  0  0  0  0  0  0  0  0
  206.0911  133.5714  134.4177 C   0  0  0  0  0  0  0  0  0  0  0  0
  205.3180  134.6449  135.0972 C   0  0  1  0  0  0  0  0  0  0  0  0
  204.9983  135.8293  134.2411 C   0  0  0  0  0  0  0  0  0  0  0  0
  205.9714  135.0564  136.4344 C   0  0  1  0  0  0  0  0  0  0  0  0
  207.1789  135.8282  136.2303 C   0  0  0  0  0  0  0  0  0  0  0  0
  207.2028  136.4632  135.1201 O   0  0  0  0  0  0  0  0  0  0  0  0
  208.3794  136.0132  137.0405 C   0  0  0  0  0  0  0  0  0  0  0  0
  209.5892  135.3994  136.7435 N   0  0  0  0  0  0  0  0  0  0  0  0
  210.4563  135.9579  135.7884 C   0  0  0  0  0  0  0  0  0  0  0  0
  211.6608  135.0628  135.4937 C   0  0  0  0  0  0  0  0  0  0  0  0
  211.2209  133.7550  135.0663 N   0  0  0  0  0  0  0  0  0  0  0  0
  210.0278  133.2352  135.7406 C   0  0  0  0  0  0  0  0  0  0  0  0
  209.7151  133.9974  136.9921 C   0  0  0  0  0  0  0  0  0  0  0  0
  211.8457  132.9709  134.0762 C   0  0  0  0  0  0  0  0  0  0  0  0
  213.1555  133.2252  133.7351 C   0  0  0  0  0  0  0  0  0  0  0  0
  213.7970  132.4760  132.7547 C   0  0  0  0  0  0  0  0  0  0  0  0
  213.0913  131.5082  132.1651 N   0  0  0  0  0  0  0  0  0  0  0  0
  211.8048  131.2232  132.4671 C   0  0  0  0  0  0  0  0  0  0  0  0
  211.2303  131.9779  133.4233 N   0  0  0  0  0  0  0  0  0  0  0  0
  211.1043  130.1851  131.8003 N   0  0  0  0  0  0  0  0  0  0  0  0
  211.5731  129.5200  130.6064 C   0  0  0  0  0  0  0  0  0  0  0  0
  210.4124  128.7347  130.0682 C   0  0  0  0  0  0  0  0  0  0  0  0
  209.2513  128.9714  131.0043 C   0  0  0  0  0  0  0  0  0  0  0  0
  209.8313  129.6591  132.2247 C   0  0  0  0  0  0  0  0  0  0  0  0
  215.1479  132.7254  132.3941 N   0  0  0  0  0  0  0  0  0  0  0  0
  215.9904  132.0096  131.4715 C   0  0  0  0  0  0  0  0  0  0  0  0
  216.6023  133.1664  130.6694 C   0  0  0  0  0  0  0  0  0  0  0  0
  216.5959  134.3400  131.6415 C   0  0  0  0  0  0  0  0  0  0  0  0
  215.9606  133.8034  132.9196 C   0  0  0  0  0  0  0  0  0  0  0  0
  2  1  1  1
  2  3  1  0
  4  3  1  6
  4  5  1  0
  5  6  1  1
  6  7  1  0
  7  8  1  0
  8  9  2  0
  9 10  1  0
 10 11  2  0
 10 12  1  0
 12 13  2  0
 13 14  1  0
 14 15  1  6
 14 16  1  0
 16 17  2  0
 17 18  1  0
 18 19  1  0
 19 20  1  6
 19 21  1  0
 21 22  1  6
 22 23  2  0
 22 24  1  0
 24 25  1  0
 25 26  1  0
 26 27  1  0
 27 28  1  0
 28 29  1  0
 29 30  1  0
 28 31  1  0
 31 32  2  0
 32 33  1  0
 33 34  2  0
 34 35  1  0
 35 36  2  0
 35 37  1  0
 37 38  1  0
 38 39  1  0
 39 40  1  0
 40 41  1  0
 33 42  1  0
 42 43  1  0
 43 44  1  0
 44 45  1  0
 45 46  1  0
 21  2  1  0
 30 25  1  0
 36 31  1  0
 41 37  1  0
 46 42  1  0
 19  4  1  0
 16  5  1  0
 14  8  1  0
M  END
$$$$
