
     RDKit          3D

 46 53  0  0  0  0  0  0  0  0999 V2000
  128.0419  140.5471  137.6268 C   0  0  0  0  0  0  0  0  0  0  0  0
  127.1283  141.5983  137.0030 C   0  0  2  0  0  0  0  0  0  0  0  0
  125.7178  141.2050  137.5115 C   0  0  0  0  0  0  0  0  0  0  0  0
  125.1954  140.4437  136.3185 C   0  0  1  0  0  0  0  0  0  0  0  0
  123.7185  140.1691  136.3517 C   0  0  2  0  0  0  0  0  0  0  0  0
  123.5578  138.8348  137.0397 C   0  0  0  0  0  0  0  0  0  0  0  0
  122.1664  138.2457  136.9338 C   0  0  0  0  0  0  0  0  0  0  0  0
  121.6665  138.3710  135.5295 C   0  0  0  0  0  0  0  0  0  0  0  0
  121.1610  137.3232  134.9470 C   0  0  0  0  0  0  0  0  0  0  0  0
  120.6540  137.3511  133.5759 C   0  0  0  0  0  0  0  0  0  0  0  0
  120.1805  136.3104  133.0774 O   0  0  0  0  0  0  0  0  0  0  0  0
  120.7407  138.6146  132.8806 C   0  0  0  0  0  0  0  0  0  0  0  0
  121.2487  139.6755  133.4669 C   0  0  0  0  0  0  0  0  0  0  0  0
  121.7518  139.6717  134.8336 C   0  0  1  0  0  0  0  0  0  0  0  0
  120.8668  140.6270  135.6505 C   0  0  0  0  0  0  0  0  0  0  0  0
  123.1849  140.0866  134.9773 C   0  0  0  0  0  0  0  0  0  0  0  0
  123.8921  140.3548  133.9124 C   0  0  0  0  0  0  0  0  0  0  0  0
  125.3133  140.7754  133.9167 C   0  0  0  0  0  0  0  0  0  0  0  0
  125.5996  141.4253  135.2234 C   0  0  1  0  0  0  0  0  0  0  0  0
  124.9620  142.7651  135.4138 C   0  0  0  0  0  0  0  0  0  0  0  0
  127.1142  141.4570  135.5227 C   0  0  1  0  0  0  0  0  0  0  0  0
  127.8065  142.4277  134.7017 C   0  0  0  0  0  0  0  0  0  0  0  0
  127.1027  143.4574  134.4176 O   0  0  0  0  0  0  0  0  0  0  0  0
  129.1479  142.4539  134.1257 C   0  0  0  0  0  0  0  0  0  0  0  0
  129.6717  141.3983  133.3910 N   0  0  0  0  0  0  0  0  0  0  0  0
  130.8329  140.7351  133.8245 C   0  0  0  0  0  0  0  0  0  0  0  0
  131.3351  139.7061  132.8107 C   0  0  0  0  0  0  0  0  0  0  0  0
  131.5661  140.3348  131.5309 N   0  0  0  0  0  0  0  0  0  0  0  0
  130.6062  141.3762  131.1531 C   0  0  0  0  0  0  0  0  0  0  0  0
  129.3683  141.3290  131.9959 C   0  0  0  0  0  0  0  0  0  0  0  0
  132.6194  140.0205  130.6494 C   0  0  0  0  0  0  0  0  0  0  0  0
  132.6864  140.6422  129.4223 C   0  0  0  0  0  0  0  0  0  0  0  0
  133.7076  140.3461  128.5260 C   0  0  0  0  0  0  0  0  0  0  0  0
  134.6114  139.4400  128.9061 N   0  0  0  0  0  0  0  0  0  0  0  0
  134.5855  138.8050  130.0993 C   0  0  0  0  0  0  0  0  0  0  0  0
  133.5762  139.1279  130.9305 N   0  0  0  0  0  0  0  0  0  0  0  0
  135.5720  137.8454  130.4445 N   0  0  0  0  0  0  0  0  0  0  0  0
  136.5749  137.3421  129.5342 C   0  0  0  0  0  0  0  0  0  0  0  0
  137.1931  136.1447  130.1956 C   0  0  0  0  0  0  0  0  0  0  0  0
  136.5066  135.9778  131.5303 C   0  0  0  0  0  0  0  0  0  0  0  0
  135.7018  137.2442  131.7479 C   0  0  0  0  0  0  0  0  0  0  0  0
  133.7905  140.9808  127.2581 N   0  0  0  0  0  0  0  0  0  0  0  0
  132.9735  142.0334  126.7123 C   0  0  0  0  0  0  0  0  0  0  0  0
  134.0439  142.9772  126.1471 C   0  0  0  0  0  0  0  0  0  0  0  0
  135.2148  142.0596  125.8168 C   0  0  0  0  0  0  0  0  0  0  0  0
  134.7656  140.6637  126.2346 C   0  0  0  0  0  0  0  0  0  0  0  0
  2  1  1  1
  2  3  1  0
  4  3  1  1
  4  5  1  0
  5  6  1  6
  6  7  1  0
  7  8  1  0
  8  9  2  0
  9 10  1  0
 10 11  2  0
 10 12  1  0
 12 13  2  0
 13 14  1  0
 14 15  1  1
 14 16  1  0
 16 17  2  0
 17 18  1  0
 18 19  1  0
 19 20  1  1
 19 21  1  0
 21 22  1  6
 22 23  2  0
 22 24  1  0
 24 25  1  0
 25 26  1  0
 26 27  1  0
 27 28  1  0
 28 29  1  0
 29 30  1  0
 28 31  1  0
 31 32  2  0
 32 33  1  0
 33 34  2  0
 34 35  1  0
 35 36  2  0
 35 37  1  0
 37 38  1  0
 38 39  1  0
 39 40  1  0
 40 41  1  0
 33 42  1  0
 42 43  1  0
 43 44  1  0
 44 45  1  0
 45 46  1  0
 21  2  1  0
 30 25  1  0
 36 31  1  0
 41 37  1  0
 46 42  1  0
 19  4  1  0
 16  5  1  0
 14  8  1  0
M  END
$$$$
