
     RDKit          3D

 46 53  0  0  0  0  0  0  0  0999 V2000
  204.4336  132.7990  136.7793 C   0  0  0  0  0  0  0  0  0  0  0  0
  204.4212  133.3417  135.3531 C   0  0  2  0  0  0  0  0  0  0  0  0
  202.9350  133.7128  135.1160 C   0  0  0  0  0  0  0  0  0  0  0  0
  202.4621  132.4951  134.3615 C   0  0  1  0  0  0  0  0  0  0  0  0
  201.1204  132.6512  133.7034 C   0  0  2  0  0  0  0  0  0  0  0  0
  200.1021  132.1890  134.7178 C   0  0  0  0  0  0  0  0  0  0  0  0
  198.7062  132.0089  134.1579 C   0  0  0  0  0  0  0  0  0  0  0  0
  198.7715  131.2801  132.8533 C   0  0  0  0  0  0  0  0  0  0  0  0
  197.9886  130.2582  132.6649 C   0  0  0  0  0  0  0  0  0  0  0  0
  197.9882  129.4833  131.4251 C   0  0  0  0  0  0  0  0  0  0  0  0
  197.2105  128.5150  131.3090 O   0  0  0  0  0  0  0  0  0  0  0  0
  198.9122  129.9067  130.3983 C   0  0  0  0  0  0  0  0  0  0  0  0
  199.7029  130.9400  130.5845 C   0  0  0  0  0  0  0  0  0  0  0  0
  199.7139  131.7300  131.8079 C   0  0  1  0  0  0  0  0  0  0  0  0
  199.2613  133.1521  131.4393 C   0  0  0  0  0  0  0  0  0  0  0  0
  201.0423  131.8011  132.4985 C   0  0  0  0  0  0  0  0  0  0  0  0
  202.0567  131.1293  132.0235 C   0  0  0  0  0  0  0  0  0  0  0  0
  203.4184  131.1150  132.6085 C   0  0  0  0  0  0  0  0  0  0  0  0
  203.6107  132.3811  133.3645 C   0  0  1  0  0  0  0  0  0  0  0  0
  203.7365  133.6077  132.5176 C   0  0  0  0  0  0  0  0  0  0  0  0
  204.7616  132.2632  134.3873 C   0  0  1  0  0  0  0  0  0  0  0  0
  206.0580  132.2585  133.7432 C   0  0  0  0  0  0  0  0  0  0  0  0
  206.0133  132.5294  132.4938 O   0  0  0  0  0  0  0  0  0  0  0  0
  207.4049  131.9933  134.2405 C   0  0  0  0  0  0  0  0  0  0  0  0
  208.4969  132.7868  133.9143 N   0  0  0  0  0  0  0  0  0  0  0  0
  209.7695  132.4978  134.4370 C   0  0  0  0  0  0  0  0  0  0  0  0
  210.8059  133.5658  134.0846 C   0  0  0  0  0  0  0  0  0  0  0  0
  210.3619  134.8637  134.5371 N   0  0  0  0  0  0  0  0  0  0  0  0
  208.9244  135.1216  134.4126 C   0  0  0  0  0  0  0  0  0  0  0  0
  208.2550  134.1349  133.5051 C   0  0  0  0  0  0  0  0  0  0  0  0
  211.1949  135.8666  135.0715 C   0  0  0  0  0  0  0  0  0  0  0  0
  212.5559  135.6625  135.1234 C   0  0  0  0  0  0  0  0  0  0  0  0
  213.4037  136.6285  135.6544 C   0  0  0  0  0  0  0  0  0  0  0  0
  212.8428  137.7521  136.1074 N   0  0  0  0  0  0  0  0  0  0  0  0
  211.5134  137.9957  136.0771 C   0  0  0  0  0  0  0  0  0  0  0  0
  210.7367  137.0283  135.5527 N   0  0  0  0  0  0  0  0  0  0  0  0
  210.9751  139.2082  136.5801 N   0  0  0  0  0  0  0  0  0  0  0  0
  209.5706  139.5468  136.5632 C   0  0  0  0  0  0  0  0  0  0  0  0
  209.4773  141.0093  136.8884 C   0  0  0  0  0  0  0  0  0  0  0  0
  210.8891  141.5028  137.0974 C   0  0  0  0  0  0  0  0  0  0  0  0
  211.7589  140.2632  137.1718 C   0  0  0  0  0  0  0  0  0  0  0  0
  214.8092  136.4327  135.7124 N   0  0  0  0  0  0  0  0  0  0  0  0
  215.8173  137.2524  136.3333 C   0  0  0  0  0  0  0  0  0  0  0  0
  216.6382  136.1953  137.0845 C   0  0  0  0  0  0  0  0  0  0  0  0
  216.4474  134.9234  136.2671 C   0  0  0  0  0  0  0  0  0  0  0  0
  215.5149  135.3121  135.1251 C   0  0  0  0  0  0  0  0  0  0  0  0
  2  1  1  1
  2  3  1  0
  4  3  1  1
  4  5  1  0
  5  6  1  1
  6  7  1  0
  7  8  1  0
  8  9  2  0
  9 10  1  0
 10 11  2  0
 10 12  1  0
 12 13  2  0
 13 14  1  0
 14 15  1  6
 14 16  1  0
 16 17  2  0
 17 18  1  0
 18 19  1  0
 19 20  1  6
 19 21  1  0
 21 22  1  6
 22 23  2  0
 22 24  1  0
 24 25  1  0
 25 26  1  0
 26 27  1  0
 27 28  1  0
 28 29  1  0
 29 30  1  0
 28 31  1  0
 31 32  2  0
 32 33  1  0
 33 34  2  0
 34 35  1  0
 35 36  2  0
 35 37  1  0
 37 38  1  0
 38 39  1  0
 39 40  1  0
 40 41  1  0
 33 42  1  0
 42 43  1  0
 43 44  1  0
 44 45  1  0
 45 46  1  0
 21  2  1  0
 30 25  1  0
 36 31  1  0
 41 37  1  0
 46 42  1  0
 19  4  1  0
 16  5  1  0
 14  8  1  0
M  END
$$$$
