
     RDKit          3D

 46 53  0  0  0  0  0  0  0  0999 V2000
  167.6401  151.6612  125.8488 C   0  0  0  0  0  0  0  0  0  0  0  0
  166.6881  150.9617  126.8149 C   0  0  2  0  0  0  0  0  0  0  0  0
  167.2325  149.5118  126.8791 C   0  0  0  0  0  0  0  0  0  0  0  0
  166.3071  148.8248  125.9058 C   0  0  1  0  0  0  0  0  0  0  0  0
  166.3603  147.3239  125.9479 C   0  0  2  0  0  0  0  0  0  0  0  0
  167.4144  146.9157  124.9470 C   0  0  0  0  0  0  0  0  0  0  0  0
  167.4345  145.4333  124.6367 C   0  0  0  0  0  0  0  0  0  0  0  0
  166.0390  144.9400  124.4203 C   0  0  0  0  0  0  0  0  0  0  0  0
  165.7824  144.2250  123.3639 C   0  0  0  0  0  0  0  0  0  0  0  0
  164.4478  143.7061  123.0684 C   0  0  0  0  0  0  0  0  0  0  0  0
  164.2703  143.0256  122.0382 O   0  0  0  0  0  0  0  0  0  0  0  0
  163.4053  144.0274  124.0156 C   0  0  0  0  0  0  0  0  0  0  0  0
  163.6616  144.7475  125.0848 C   0  0  0  0  0  0  0  0  0  0  0  0
  164.9845  145.2673  125.4022 C   0  0  1  0  0  0  0  0  0  0  0  0
  165.4340  144.6060  126.7151 C   0  0  0  0  0  0  0  0  0  0  0  0
  165.0551  146.7568  125.5536 C   0  0  0  0  0  0  0  0  0  0  0  0
  163.9897  147.4814  125.3393 C   0  0  0  0  0  0  0  0  0  0  0  0
  163.9255  148.9576  125.4557 C   0  0  0  0  0  0  0  0  0  0  0  0
  164.9831  149.3934  126.4060 C   0  0  1  0  0  0  0  0  0  0  0  0
  164.7298  149.0381  127.8368 C   0  0  0  0  0  0  0  0  0  0  0  0
  165.3218  150.8899  126.2322 C   0  0  1  0  0  0  0  0  0  0  0  0
  164.2742  151.7442  126.7501 C   0  0  0  0  0  0  0  0  0  0  0  0
  163.0939  151.3465  126.4582 O   0  0  0  0  0  0  0  0  0  0  0  0
  164.3037  152.9776  127.5309 C   0  0  0  0  0  0  0  0  0  0  0  0
  164.2282  154.2371  126.9507 N   0  0  0  0  0  0  0  0  0  0  0  0
  165.3605  154.8141  126.3498 C   0  0  0  0  0  0  0  0  0  0  0  0
  165.1179  156.2564  125.9028 C   0  0  0  0  0  0  0  0  0  0  0  0
  164.6796  157.0604  127.0200 N   0  0  0  0  0  0  0  0  0  0  0  0
  163.7851  156.3927  127.9700 C   0  0  0  0  0  0  0  0  0  0  0  0
  163.2089  155.1305  127.4044 C   0  0  0  0  0  0  0  0  0  0  0  0
  165.0431  158.4026  127.2472 C   0  0  0  0  0  0  0  0  0  0  0  0
  164.6787  159.0145  128.4260 C   0  0  0  0  0  0  0  0  0  0  0  0
  165.0132  160.3410  128.6759 C   0  0  0  0  0  0  0  0  0  0  0  0
  165.6973  160.9878  127.7293 N   0  0  0  0  0  0  0  0  0  0  0  0
  166.0758  160.4285  126.5582 C   0  0  0  0  0  0  0  0  0  0  0  0
  165.7272  159.1419  126.3660 N   0  0  0  0  0  0  0  0  0  0  0  0
  166.7970  161.1699  125.5870 N   0  0  0  0  0  0  0  0  0  0  0  0
  167.0779  162.5840  125.6826 C   0  0  0  0  0  0  0  0  0  0  0  0
  167.5693  163.0166  124.3317 C   0  0  0  0  0  0  0  0  0  0  0  0
  167.5636  161.7908  123.4499 C   0  0  0  0  0  0  0  0  0  0  0  0
  167.3418  160.6106  124.3755 C   0  0  0  0  0  0  0  0  0  0  0  0
  164.6461  160.9843  129.8877 N   0  0  0  0  0  0  0  0  0  0  0  0
  163.6978  160.5676  130.8880 C   0  0  0  0  0  0  0  0  0  0  0  0
  164.5060  160.7897  132.1738 C   0  0  0  0  0  0  0  0  0  0  0  0
  165.4750  161.9105  131.8176 C   0  0  0  0  0  0  0  0  0  0  0  0
  165.1911  162.2420  130.3566 C   0  0  0  0  0  0  0  0  0  0  0  0
  2  1  1  6
  2  3  1  0
  4  3  1  1
  4  5  1  0
  5  6  1  6
  6  7  1  0
  7  8  1  0
  8  9  2  0
  9 10  1  0
 10 11  2  0
 10 12  1  0
 12 13  2  0
 13 14  1  0
 14 15  1  1
 14 16  1  0
 16 17  2  0
 17 18  1  0
 18 19  1  0
 19 20  1  1
 19 21  1  0
 21 22  1  1
 22 23  2  0
 22 24  1  0
 24 25  1  0
 25 26  1  0
 26 27  1  0
 27 28  1  0
 28 29  1  0
 29 30  1  0
 28 31  1  0
 31 32  2  0
 32 33  1  0
 33 34  2  0
 34 35  1  0
 35 36  2  0
 35 37  1  0
 37 38  1  0
 38 39  1  0
 39 40  1  0
 40 41  1  0
 33 42  1  0
 42 43  1  0
 43 44  1  0
 44 45  1  0
 45 46  1  0
 21  2  1  0
 30 25  1  0
 36 31  1  0
 41 37  1  0
 46 42  1  0
 19  4  1  0
 16  5  1  0
 14  8  1  0
M  END
$$$$
