
     RDKit          3D

 46 53  0  0  0  0  0  0  0  0999 V2000
  201.1953  137.8709  134.5888 C   0  0  0  0  0  0  0  0  0  0  0  0
  201.5137  136.7088  133.6522 C   0  0  2  0  0  0  0  0  0  0  0  0
  200.4317  135.6539  133.9974 C   0  0  0  0  0  0  0  0  0  0  0  0
  201.2077  134.7547  134.9274 C   0  0  1  0  0  0  0  0  0  0  0  0
  200.5431  133.4399  135.2225 C   0  0  2  0  0  0  0  0  0  0  0  0
  199.6950  133.6677  136.4506 C   0  0  0  0  0  0  0  0  0  0  0  0
  199.1535  132.3983  137.0748 C   0  0  0  0  0  0  0  0  0  0  0  0
  200.2362  131.3694  137.1561 C   0  0  0  0  0  0  0  0  0  0  0  0
  200.4322  130.7516  138.2842 C   0  0  0  0  0  0  0  0  0  0  0  0
  201.4704  129.7368  138.4573 C   0  0  0  0  0  0  0  0  0  0  0  0
  201.6041  129.1813  139.5661 O   0  0  0  0  0  0  0  0  0  0  0  0
  202.2864  129.4437  137.3016 C   0  0  0  0  0  0  0  0  0  0  0  0
  202.0896  130.0643  136.1599 C   0  0  0  0  0  0  0  0  0  0  0  0
  201.0568  131.0721  135.9637 C   0  0  1  0  0  0  0  0  0  0  0  0
  200.0710  130.5211  134.9208 C   0  0  0  0  0  0  0  0  0  0  0  0
  201.5602  132.4075  135.5059 C   0  0  0  0  0  0  0  0  0  0  0  0
  202.8445  132.6063  135.3754 C   0  0  0  0  0  0  0  0  0  0  0  0
  203.4699  133.8745  134.9315 C   0  0  0  0  0  0  0  0  0  0  0  0
  202.4814  134.6120  134.1005 C   0  0  1  0  0  0  0  0  0  0  0  0
  202.2097  134.0072  132.7596 C   0  0  0  0  0  0  0  0  0  0  0  0
  202.8313  136.1126  133.9988 C   0  0  1  0  0  0  0  0  0  0  0  0
  203.9728  136.3437  133.1392 C   0  0  0  0  0  0  0  0  0  0  0  0
  203.9720  135.6286  132.0785 O   0  0  0  0  0  0  0  0  0  0  0  0
  205.1305  137.2261  133.2536 C   0  0  0  0  0  0  0  0  0  0  0  0
  205.2724  138.3824  132.4977 N   0  0  0  0  0  0  0  0  0  0  0  0
  205.1123  139.6464  133.0919 C   0  0  0  0  0  0  0  0  0  0  0  0
  205.1588  140.7852  132.0721 C   0  0  0  0  0  0  0  0  0  0  0  0
  204.1594  140.5829  131.0489 N   0  0  0  0  0  0  0  0  0  0  0  0
  203.9475  139.1928  130.6349 C   0  0  0  0  0  0  0  0  0  0  0  0
  205.0613  138.2981  131.0865 C   0  0  0  0  0  0  0  0  0  0  0  0
  203.4007  141.6028  130.4411 C   0  0  0  0  0  0  0  0  0  0  0  0
  203.6936  142.9207  130.7130 C   0  0  0  0  0  0  0  0  0  0  0  0
  202.9569  143.9501  130.1372 C   0  0  0  0  0  0  0  0  0  0  0  0
  201.9619  143.6051  129.3166 N   0  0  0  0  0  0  0  0  0  0  0  0
  201.6385  142.3262  129.0209 C   0  0  0  0  0  0  0  0  0  0  0  0
  202.3829  141.3674  129.6045 N   0  0  0  0  0  0  0  0  0  0  0  0
  200.5646  142.0217  128.1451 N   0  0  0  0  0  0  0  0  0  0  0  0
  200.2588  140.6959  127.6589 C   0  0  0  0  0  0  0  0  0  0  0  0
  199.2731  140.8658  126.5394 C   0  0  0  0  0  0  0  0  0  0  0  0
  199.0189  142.3478  126.4002 C   0  0  0  0  0  0  0  0  0  0  0  0
  199.6390  142.9952  127.6229 C   0  0  0  0  0  0  0  0  0  0  0  0
  203.2488  145.3136  130.4067 N   0  0  0  0  0  0  0  0  0  0  0  0
  204.3432  145.8798  131.1518 C   0  0  0  0  0  0  0  0  0  0  0  0
  204.7990  146.9991  130.2057 C   0  0  0  0  0  0  0  0  0  0  0  0
  203.5390  147.3727  129.4341 C   0  0  0  0  0  0  0  0  0  0  0  0
  202.4534  146.4368  129.9542 C   0  0  0  0  0  0  0  0  0  0  0  0
  2  1  1  1
  2  3  1  0
  4  3  1  6
  4  5  1  0
  5  6  1  1
  6  7  1  0
  7  8  1  0
  8  9  2  0
  9 10  1  0
 10 11  2  0
 10 12  1  0
 12 13  2  0
 13 14  1  0
 14 15  1  6
 14 16  1  0
 16 17  2  0
 17 18  1  0
 18 19  1  0
 19 20  1  6
 19 21  1  0
 21 22  1  6
 22 23  2  0
 22 24  1  0
 24 25  1  0
 25 26  1  0
 26 27  1  0
 27 28  1  0
 28 29  1  0
 29 30  1  0
 28 31  1  0
 31 32  2  0
 32 33  1  0
 33 34  2  0
 34 35  1  0
 35 36  2  0
 35 37  1  0
 37 38  1  0
 38 39  1  0
 39 40  1  0
 40 41  1  0
 33 42  1  0
 42 43  1  0
 43 44  1  0
 44 45  1  0
 45 46  1  0
 21  2  1  0
 30 25  1  0
 36 31  1  0
 41 37  1  0
 46 42  1  0
 19  4  1  0
 16  5  1  0
 14  8  1  0
M  END
$$$$
