
     RDKit          3D

 46 53  0  0  0  0  0  0  0  0999 V2000
  205.9641  131.7666  137.2977 C   0  0  0  0  0  0  0  0  0  0  0  0
  205.6925  133.2646  137.1929 C   0  0  2  0  0  0  0  0  0  0  0  0
  204.1454  133.3541  137.1554 C   0  0  0  0  0  0  0  0  0  0  0  0
  203.9114  133.4889  135.6713 C   0  0  1  0  0  0  0  0  0  0  0  0
  202.5173  133.9040  135.2948 C   0  0  2  0  0  0  0  0  0  0  0  0
  201.7359  132.6248  135.1138 C   0  0  0  0  0  0  0  0  0  0  0  0
  200.3789  132.8130  134.4678 C   0  0  0  0  0  0  0  0  0  0  0  0
  200.4980  133.7298  133.2919 C   0  0  0  0  0  0  0  0  0  0  0  0
  199.9688  133.3702  132.1590 C   0  0  0  0  0  0  0  0  0  0  0  0
  200.0413  134.1990  130.9567 C   0  0  0  0  0  0  0  0  0  0  0  0
  199.5109  133.7952  129.9024 O   0  0  0  0  0  0  0  0  0  0  0  0
  200.7398  135.4576  131.0807 C   0  0  0  0  0  0  0  0  0  0  0  0
  201.2735  135.8249  132.2242 C   0  0  0  0  0  0  0  0  0  0  0  0
  201.2061  135.0187  133.4353 C   0  0  1  0  0  0  0  0  0  0  0  0
  200.3945  135.8139  134.4706 C   0  0  0  0  0  0  0  0  0  0  0  0
  202.5359  134.6584  134.0255 C   0  0  0  0  0  0  0  0  0  0  0  0
  203.6342  135.0153  133.4154 C   0  0  0  0  0  0  0  0  0  0  0  0
  205.0071  134.7241  133.8919 C   0  0  0  0  0  0  0  0  0  0  0  0
  204.9584  134.5560  135.3687 C   0  0  1  0  0  0  0  0  0  0  0  0
  204.7092  135.8143  136.1383 C   0  0  0  0  0  0  0  0  0  0  0  0
  206.1920  133.7903  135.8945 C   0  0  1  0  0  0  0  0  0  0  0  0
  207.3878  134.6056  135.8618 C   0  0  0  0  0  0  0  0  0  0  0  0
  207.1806  135.8353  136.1471 O   0  0  0  0  0  0  0  0  0  0  0  0
  208.7820  134.2990  135.5552 C   0  0  0  0  0  0  0  0  0  0  0  0
  209.1756  133.6936  134.3690 N   0  0  0  0  0  0  0  0  0  0  0  0
  209.4474  132.3150  134.3282 C   0  0  0  0  0  0  0  0  0  0  0  0
  210.0074  131.8661  132.9777 C   0  0  0  0  0  0  0  0  0  0  0  0
  211.1955  132.6203  132.6520 N   0  0  0  0  0  0  0  0  0  0  0  0
  211.1767  134.0333  133.0414 C   0  0  0  0  0  0  0  0  0  0  0  0
  209.7927  134.5059  133.3677 C   0  0  0  0  0  0  0  0  0  0  0  0
  212.3341  132.1027  132.0033 C   0  0  0  0  0  0  0  0  0  0  0  0
  212.3617  130.7757  131.6357 C   0  0  0  0  0  0  0  0  0  0  0  0
  213.4747  130.2323  131.0033 C   0  0  0  0  0  0  0  0  0  0  0  0
  214.5054  131.0485  130.7712 N   0  0  0  0  0  0  0  0  0  0  0  0
  214.5228  132.3560  131.1140 C   0  0  0  0  0  0  0  0  0  0  0  0
  213.4205  132.8326  131.7236 N   0  0  0  0  0  0  0  0  0  0  0  0
  215.6518  133.1726  130.8463 N   0  0  0  0  0  0  0  0  0  0  0  0
  216.8713  132.7028  130.2300 C   0  0  0  0  0  0  0  0  0  0  0  0
  217.8937  133.7854  130.4207 C   0  0  0  0  0  0  0  0  0  0  0  0
  217.2124  134.9044  131.1719 C   0  0  0  0  0  0  0  0  0  0  0  0
  215.7319  134.5779  131.1565 C   0  0  0  0  0  0  0  0  0  0  0  0
  213.5164  128.8663  130.6167 N   0  0  0  0  0  0  0  0  0  0  0  0
  212.4435  127.9090  130.5407 C   0  0  0  0  0  0  0  0  0  0  0  0
  212.7056  127.2779  129.1663 C   0  0  0  0  0  0  0  0  0  0  0  0
  214.2087  127.4292  128.9659 C   0  0  0  0  0  0  0  0  0  0  0  0
  214.7115  128.1567  130.2080 C   0  0  0  0  0  0  0  0  0  0  0  0
  2  1  1  6
  2  3  1  0
  4  3  1  1
  4  5  1  0
  5  6  1  6
  6  7  1  0
  7  8  1  0
  8  9  2  0
  9 10  1  0
 10 11  2  0
 10 12  1  0
 12 13  2  0
 13 14  1  0
 14 15  1  1
 14 16  1  0
 16 17  2  0
 17 18  1  0
 18 19  1  0
 19 20  1  1
 19 21  1  0
 21 22  1  1
 22 23  2  0
 22 24  1  0
 24 25  1  0
 25 26  1  0
 26 27  1  0
 27 28  1  0
 28 29  1  0
 29 30  1  0
 28 31  1  0
 31 32  2  0
 32 33  1  0
 33 34  2  0
 34 35  1  0
 35 36  2  0
 35 37  1  0
 37 38  1  0
 38 39  1  0
 39 40  1  0
 40 41  1  0
 33 42  1  0
 42 43  1  0
 43 44  1  0
 44 45  1  0
 45 46  1  0
 21  2  1  0
 30 25  1  0
 36 31  1  0
 41 37  1  0
 46 42  1  0
 19  4  1  0
 16  5  1  0
 14  8  1  0
M  END
$$$$
