
     RDKit          3D

 46 53  0  0  0  0  0  0  0  0999 V2000
  206.0214  131.6627  137.0019 C   0  0  0  0  0  0  0  0  0  0  0  0
  205.8119  133.1739  137.0367 C   0  0  2  0  0  0  0  0  0  0  0  0
  204.2835  133.3360  136.8355 C   0  0  0  0  0  0  0  0  0  0  0  0
  204.2290  133.6410  135.3592 C   0  0  1  0  0  0  0  0  0  0  0  0
  202.9024  134.1563  134.8773 C   0  0  2  0  0  0  0  0  0  0  0  0
  202.1070  132.9405  134.4664 C   0  0  0  0  0  0  0  0  0  0  0  0
  200.8415  133.2580  133.6971 C   0  0  0  0  0  0  0  0  0  0  0  0
  201.1264  134.2905  132.6530 C   0  0  0  0  0  0  0  0  0  0  0  0
  200.7221  134.0797  131.4344 C   0  0  0  0  0  0  0  0  0  0  0  0
  200.9611  135.0296  130.3490 C   0  0  0  0  0  0  0  0  0  0  0  0
  200.5450  134.7665  129.2029 O   0  0  0  0  0  0  0  0  0  0  0  0
  201.6801  136.2349  130.6919 C   0  0  0  0  0  0  0  0  0  0  0  0
  202.0880  136.4520  131.9223 C   0  0  0  0  0  0  0  0  0  0  0  0
  201.8539  135.5233  133.0195 C   0  0  1  0  0  0  0  0  0  0  0  0
  200.9526  136.2372  134.0398 C   0  0  0  0  0  0  0  0  0  0  0  0
  203.0933  135.0421  133.7113 C   0  0  0  0  0  0  0  0  0  0  0  0
  204.2662  135.4135  133.2729 C   0  0  0  0  0  0  0  0  0  0  0  0
  205.5640  135.0114  133.8651 C   0  0  0  0  0  0  0  0  0  0  0  0
  205.3377  134.6866  135.2986 C   0  0  1  0  0  0  0  0  0  0  0  0
  205.0406  135.8641  136.1721 C   0  0  0  0  0  0  0  0  0  0  0  0
  206.4763  133.8142  135.8704 C   0  0  1  0  0  0  0  0  0  0  0  0
  207.6931  134.5739  136.0646 C   0  0  0  0  0  0  0  0  0  0  0  0
  207.5136  135.8405  136.0730 O   0  0  0  0  0  0  0  0  0  0  0  0
  209.0866  134.1754  136.2412 C   0  0  0  0  0  0  0  0  0  0  0  0
  210.0115  134.1950  135.2056 N   0  0  0  0  0  0  0  0  0  0  0  0
  209.8017  133.4256  134.0479 C   0  0  0  0  0  0  0  0  0  0  0  0
  210.9955  133.4636  133.0927 C   0  0  0  0  0  0  0  0  0  0  0  0
  212.1945  133.0298  133.7715 N   0  0  0  0  0  0  0  0  0  0  0  0
  212.3195  133.4506  135.1700 C   0  0  0  0  0  0  0  0  0  0  0  0
  211.3616  134.5511  135.5114 C   0  0  0  0  0  0  0  0  0  0  0  0
  213.2198  132.2548  133.1941 C   0  0  0  0  0  0  0  0  0  0  0  0
  213.8487  131.2898  133.9492 C   0  0  0  0  0  0  0  0  0  0  0  0
  214.8712  130.5155  133.4116 C   0  0  0  0  0  0  0  0  0  0  0  0
  215.2119  130.7487  132.1420 N   0  0  0  0  0  0  0  0  0  0  0  0
  214.6234  131.6844  131.3638 C   0  0  0  0  0  0  0  0  0  0  0  0
  213.6389  132.4066  131.9322 N   0  0  0  0  0  0  0  0  0  0  0  0
  215.0341  131.8904  130.0214 N   0  0  0  0  0  0  0  0  0  0  0  0
  214.3306  132.7206  129.0708 C   0  0  0  0  0  0  0  0  0  0  0  0
  214.9100  132.4130  127.7206 C   0  0  0  0  0  0  0  0  0  0  0  0
  215.9820  131.3704  127.9306 C   0  0  0  0  0  0  0  0  0  0  0  0
  216.2057  131.2963  129.4284 C   0  0  0  0  0  0  0  0  0  0  0  0
  215.5271  129.5155  134.1775 N   0  0  0  0  0  0  0  0  0  0  0  0
  215.3442  129.1634  135.5617 C   0  0  0  0  0  0  0  0  0  0  0  0
  215.2596  127.6336  135.4703 C   0  0  0  0  0  0  0  0  0  0  0  0
  216.0768  127.2873  134.2315 C   0  0  0  0  0  0  0  0  0  0  0  0
  216.5520  128.6242  133.6732 C   0  0  0  0  0  0  0  0  0  0  0  0
  2  1  1  6
  2  3  1  0
  4  3  1  1
  4  5  1  0
  5  6  1  6
  6  7  1  0
  7  8  1  0
  8  9  2  0
  9 10  1  0
 10 11  2  0
 10 12  1  0
 12 13  2  0
 13 14  1  0
 14 15  1  1
 14 16  1  0
 16 17  2  0
 17 18  1  0
 18 19  1  0
 19 20  1  1
 19 21  1  0
 21 22  1  1
 22 23  2  0
 22 24  1  0
 24 25  1  0
 25 26  1  0
 26 27  1  0
 27 28  1  0
 28 29  1  0
 29 30  1  0
 28 31  1  0
 31 32  2  0
 32 33  1  0
 33 34  2  0
 34 35  1  0
 35 36  2  0
 35 37  1  0
 37 38  1  0
 38 39  1  0
 39 40  1  0
 40 41  1  0
 33 42  1  0
 42 43  1  0
 43 44  1  0
 44 45  1  0
 45 46  1  0
 21  2  1  0
 30 25  1  0
 36 31  1  0
 41 37  1  0
 46 42  1  0
 19  4  1  0
 16  5  1  0
 14  8  1  0
M  END
$$$$
