
     RDKit          3D

 46 53  0  0  0  0  0  0  0  0999 V2000
  127.7660  141.8220  136.0611 C   0  0  0  0  0  0  0  0  0  0  0  0
  128.7209  143.0105  135.9926 C   0  0  2  0  0  0  0  0  0  0  0  0
  127.8046  144.1929  135.5862 C   0  0  0  0  0  0  0  0  0  0  0  0
  128.0677  144.2502  134.1019 C   0  0  1  0  0  0  0  0  0  0  0  0
  127.5614  145.4930  133.4262 C   0  0  2  0  0  0  0  0  0  0  0  0
  126.1545  145.1796  132.9767 C   0  0  0  0  0  0  0  0  0  0  0  0
  125.5612  146.2063  132.0342 C   0  0  0  0  0  0  0  0  0  0  0  0
  126.5629  146.5730  130.9857 C   0  0  0  0  0  0  0  0  0  0  0  0
  126.1977  146.5620  129.7369 C   0  0  0  0  0  0  0  0  0  0  0  0
  127.1101  146.9000  128.6456 C   0  0  0  0  0  0  0  0  0  0  0  0
  126.6949  146.8709  127.4697 O   0  0  0  0  0  0  0  0  0  0  0  0
  128.4608  147.2522  129.0184 C   0  0  0  0  0  0  0  0  0  0  0  0
  128.8325  147.2665  130.2790 C   0  0  0  0  0  0  0  0  0  0  0  0
  127.9382  146.9411  131.3815 C   0  0  1  0  0  0  0  0  0  0  0  0
  127.7875  148.2082  132.2387 C   0  0  0  0  0  0  0  0  0  0  0  0
  128.3986  145.8112  132.2521 C   0  0  0  0  0  0  0  0  0  0  0  0
  129.4940  145.1664  131.9520 C   0  0  0  0  0  0  0  0  0  0  0  0
  130.0571  144.0358  132.7276 C   0  0  0  0  0  0  0  0  0  0  0  0
  129.5901  144.1613  134.1339 C   0  0  1  0  0  0  0  0  0  0  0  0
  130.1976  145.2926  134.9011 C   0  0  0  0  0  0  0  0  0  0  0  0
  129.7031  142.8207  134.8920 C   0  0  1  0  0  0  0  0  0  0  0  0
  131.0776  142.4916  135.2047 C   0  0  0  0  0  0  0  0  0  0  0  0
  131.3923  142.7017  136.4267 O   0  0  0  0  0  0  0  0  0  0  0  0
  132.1773  141.9774  134.3934 C   0  0  0  0  0  0  0  0  0  0  0  0
  132.7050  140.7040  134.5622 N   0  0  0  0  0  0  0  0  0  0  0  0
  132.9003  139.8608  133.4544 C   0  0  0  0  0  0  0  0  0  0  0  0
  133.3470  138.4549  133.8577 C   0  0  0  0  0  0  0  0  0  0  0  0
  132.3938  137.8687  134.7710 N   0  0  0  0  0  0  0  0  0  0  0  0
  131.7962  138.7899  135.7420 C   0  0  0  0  0  0  0  0  0  0  0  0
  132.5598  140.0755  135.8377 C   0  0  0  0  0  0  0  0  0  0  0  0
  132.0149  136.5117  134.7897 C   0  0  0  0  0  0  0  0  0  0  0  0
  132.6643  135.6141  133.9717 C   0  0  0  0  0  0  0  0  0  0  0  0
  132.3068  134.2702  133.9594 C   0  0  0  0  0  0  0  0  0  0  0  0
  131.3144  133.8940  134.7693 N   0  0  0  0  0  0  0  0  0  0  0  0
  130.6491  134.7390  135.5883 C   0  0  0  0  0  0  0  0  0  0  0  0
  131.0343  136.0293  135.5623 N   0  0  0  0  0  0  0  0  0  0  0  0
  129.5973  134.2804  136.4228 N   0  0  0  0  0  0  0  0  0  0  0  0
  129.1509  132.9081  136.4938 C   0  0  0  0  0  0  0  0  0  0  0  0
  127.8465  132.9185  137.2366 C   0  0  0  0  0  0  0  0  0  0  0  0
  127.5579  134.3567  137.5956 C   0  0  0  0  0  0  0  0  0  0  0  0
  128.8336  135.1238  137.3076 C   0  0  0  0  0  0  0  0  0  0  0  0
  132.9690  133.3328  133.1228 N   0  0  0  0  0  0  0  0  0  0  0  0
  134.1438  133.5101  132.3092 C   0  0  0  0  0  0  0  0  0  0  0  0
  134.9495  132.2557  132.6738 C   0  0  0  0  0  0  0  0  0  0  0  0
  133.8906  131.2312  133.0630 C   0  0  0  0  0  0  0  0  0  0  0  0
  132.5565  131.9575  132.9301 C   0  0  0  0  0  0  0  0  0  0  0  0
  2  1  1  6
  2  3  1  0
  4  3  1  1
  4  5  1  0
  5  6  1  6
  6  7  1  0
  7  8  1  0
  8  9  2  0
  9 10  1  0
 10 11  2  0
 10 12  1  0
 12 13  2  0
 13 14  1  0
 14 15  1  1
 14 16  1  0
 16 17  2  0
 17 18  1  0
 18 19  1  0
 19 20  1  1
 19 21  1  0
 21 22  1  1
 22 23  2  0
 22 24  1  0
 24 25  1  0
 25 26  1  0
 26 27  1  0
 27 28  1  0
 28 29  1  0
 29 30  1  0
 28 31  1  0
 31 32  2  0
 32 33  1  0
 33 34  2  0
 34 35  1  0
 35 36  2  0
 35 37  1  0
 37 38  1  0
 38 39  1  0
 39 40  1  0
 40 41  1  0
 33 42  1  0
 42 43  1  0
 43 44  1  0
 44 45  1  0
 45 46  1  0
 21  2  1  0
 30 25  1  0
 36 31  1  0
 41 37  1  0
 46 42  1  0
 19  4  1  0
 16  5  1  0
 14  8  1  0
M  END
$$$$
