
     RDKit          3D

 46 53  0  0  0  0  0  0  0  0999 V2000
  148.4146  167.5795  129.9533 C   0  0  0  0  0  0  0  0  0  0  0  0
  149.6099  166.6737  130.2353 C   0  0  2  0  0  0  0  0  0  0  0  0
  150.7099  167.2134  129.2857 C   0  0  0  0  0  0  0  0  0  0  0  0
  150.5921  166.2371  128.1417 C   0  0  1  0  0  0  0  0  0  0  0  0
  151.7296  166.2849  127.1613 C   0  0  2  0  0  0  0  0  0  0  0  0
  151.3276  167.2856  126.1046 C   0  0  0  0  0  0  0  0  0  0  0  0
  152.2157  167.2829  124.8776 C   0  0  0  0  0  0  0  0  0  0  0  0
  152.4772  165.8759  124.4422 C   0  0  0  0  0  0  0  0  0  0  0  0
  152.3043  165.5633  123.1911 C   0  0  0  0  0  0  0  0  0  0  0  0
  152.5298  164.2131  122.6775 C   0  0  0  0  0  0  0  0  0  0  0  0
  152.3467  163.9809  121.4657 O   0  0  0  0  0  0  0  0  0  0  0  0
  152.9596  163.2207  123.6357 C   0  0  0  0  0  0  0  0  0  0  0  0
  153.1374  163.5338  124.8997 C   0  0  0  0  0  0  0  0  0  0  0  0
  152.9263  164.8734  125.4305 C   0  0  1  0  0  0  0  0  0  0  0  0
  154.2843  165.3848  125.9378 C   0  0  0  0  0  0  0  0  0  0  0  0
  151.9235  164.9588  126.5412 C   0  0  0  0  0  0  0  0  0  0  0  0
  151.2752  163.8877  126.9131 C   0  0  0  0  0  0  0  0  0  0  0  0
  150.2628  163.8366  127.9944 C   0  0  0  0  0  0  0  0  0  0  0  0
  150.5470  164.9426  128.9471 C   0  0  1  0  0  0  0  0  0  0  0  0
  151.7789  164.7594  129.7758 C   0  0  0  0  0  0  0  0  0  0  0  0
  149.3125  165.2796  129.8114 C   0  0  1  0  0  0  0  0  0  0  0  0
  149.0596  164.2634  130.8109 C   0  0  0  0  0  0  0  0  0  0  0  0
  149.7272  163.1870  130.6313 O   0  0  0  0  0  0  0  0  0  0  0  0
  148.1820  164.2245  131.9771 C   0  0  0  0  0  0  0  0  0  0  0  0
  147.4681  165.3309  132.4184 N   0  0  0  0  0  0  0  0  0  0  0  0
  146.0649  165.3530  132.3361 C   0  0  0  0  0  0  0  0  0  0  0  0
  145.4744  166.7077  132.7299 C   0  0  0  0  0  0  0  0  0  0  0  0
  146.0402  167.7572  131.9145 N   0  0  0  0  0  0  0  0  0  0  0  0
  147.4604  167.6082  131.5841 C   0  0  0  0  0  0  0  0  0  0  0  0
  148.1351  166.5945  132.4572 C   0  0  0  0  0  0  0  0  0  0  0  0
  145.3381  168.8801  131.4332 C   0  0  0  0  0  0  0  0  0  0  0  0
  144.3350  169.4328  132.1981 C   0  0  0  0  0  0  0  0  0  0  0  0
  143.6167  170.5347  131.7466 C   0  0  0  0  0  0  0  0  0  0  0  0
  143.9412  171.0272  130.5489 N   0  0  0  0  0  0  0  0  0  0  0  0
  144.9171  170.5179  129.7642 C   0  0  0  0  0  0  0  0  0  0  0  0
  145.5823  169.4514  130.2478 N   0  0  0  0  0  0  0  0  0  0  0  0
  145.2120  171.0818  128.4960 N   0  0  0  0  0  0  0  0  0  0  0  0
  144.3784  172.0483  127.8187 C   0  0  0  0  0  0  0  0  0  0  0  0
  144.8808  172.1342  126.4067 C   0  0  0  0  0  0  0  0  0  0  0  0
  146.0439  171.1774  126.2963 C   0  0  0  0  0  0  0  0  0  0  0  0
  146.3806  170.7627  127.7152 C   0  0  0  0  0  0  0  0  0  0  0  0
  142.5813  171.1165  132.5253 N   0  0  0  0  0  0  0  0  0  0  0  0
  141.8186  172.3124  132.2773 C   0  0  0  0  0  0  0  0  0  0  0  0
  140.3922  171.8176  132.5536 C   0  0  0  0  0  0  0  0  0  0  0  0
  140.5768  170.6869  133.5585 C   0  0  0  0  0  0  0  0  0  0  0  0
  142.0823  170.5794  133.7749 C   0  0  0  0  0  0  0  0  0  0  0  0
  2  1  1  6
  2  3  1  0
  4  3  1  1
  4  5  1  0
  5  6  1  6
  6  7  1  0
  7  8  1  0
  8  9  2  0
  9 10  1  0
 10 11  2  0
 10 12  1  0
 12 13  2  0
 13 14  1  0
 14 15  1  1
 14 16  1  0
 16 17  2  0
 17 18  1  0
 18 19  1  0
 19 20  1  1
 19 21  1  0
 21 22  1  1
 22 23  2  0
 22 24  1  0
 24 25  1  0
 25 26  1  0
 26 27  1  0
 27 28  1  0
 28 29  1  0
 29 30  1  0
 28 31  1  0
 31 32  2  0
 32 33  1  0
 33 34  2  0
 34 35  1  0
 35 36  2  0
 35 37  1  0
 37 38  1  0
 38 39  1  0
 39 40  1  0
 40 41  1  0
 33 42  1  0
 42 43  1  0
 43 44  1  0
 44 45  1  0
 45 46  1  0
 21  2  1  0
 30 25  1  0
 36 31  1  0
 41 37  1  0
 46 42  1  0
 19  4  1  0
 16  5  1  0
 14  8  1  0
M  END
$$$$
