
     RDKit          3D

 46 53  0  0  0  0  0  0  0  0999 V2000
  171.4751  161.7768  112.4651 C   0  0  0  0  0  0  0  0  0  0  0  0
  171.0635  163.0347  111.7053 C   0  0  2  0  0  0  0  0  0  0  0  0
  170.2122  162.4899  110.5300 C   0  0  0  0  0  0  0  0  0  0  0  0
  171.2361  162.4904  109.4222 C   0  0  1  0  0  0  0  0  0  0  0  0
  170.6657  162.2988  108.0456 C   0  0  2  0  0  0  0  0  0  0  0  0
  170.6693  160.8098  107.7962 C   0  0  0  0  0  0  0  0  0  0  0  0
  170.3869  160.4205  106.3598 C   0  0  0  0  0  0  0  0  0  0  0  0
  171.1816  161.2848  105.4330 C   0  0  0  0  0  0  0  0  0  0  0  0
  171.8744  160.7206  104.4872 C   0  0  0  0  0  0  0  0  0  0  0  0
  172.6845  161.4849  103.5400 C   0  0  0  0  0  0  0  0  0  0  0  0
  173.3241  160.8813  102.6555 O   0  0  0  0  0  0  0  0  0  0  0  0
  172.6850  162.9207  103.7018 C   0  0  0  0  0  0  0  0  0  0  0  0
  171.9844  163.4940  104.6546 C   0  0  0  0  0  0  0  0  0  0  0  0
  171.1651  162.7525  105.6032 C   0  0  1  0  0  0  0  0  0  0  0  0
  169.7041  163.1707  105.3718 C   0  0  0  0  0  0  0  0  0  0  0  0
  171.5163  162.9722  107.0437 C   0  0  0  0  0  0  0  0  0  0  0  0
  172.5327  163.7312  107.3547 C   0  0  0  0  0  0  0  0  0  0  0  0
  172.9829  164.0295  108.7349 C   0  0  0  0  0  0  0  0  0  0  0  0
  171.8152  163.8839  109.6442 C   0  0  1  0  0  0  0  0  0  0  0  0
  170.7730  164.9481  109.5066 C   0  0  0  0  0  0  0  0  0  0  0  0
  172.2575  163.6929  111.1113 C   0  0  1  0  0  0  0  0  0  0  0  0
  172.7617  164.9214  111.6875 C   0  0  0  0  0  0  0  0  0  0  0  0
  172.5346  165.9571  110.9718 O   0  0  0  0  0  0  0  0  0  0  0  0
  173.4889  165.2060  112.9212 C   0  0  0  0  0  0  0  0  0  0  0  0
  173.6953  164.2525  113.9096 N   0  0  0  0  0  0  0  0  0  0  0  0
  172.9285  164.2697  115.0877 C   0  0  0  0  0  0  0  0  0  0  0  0
  173.4026  163.2382  116.1125 C   0  0  0  0  0  0  0  0  0  0  0  0
  174.7988  163.4432  116.4209 N   0  0  0  0  0  0  0  0  0  0  0  0
  175.6448  163.8477  115.2943 C   0  0  0  0  0  0  0  0  0  0  0  0
  174.9719  163.6131  113.9763 C   0  0  0  0  0  0  0  0  0  0  0  0
  175.3819  163.2828  117.6936 C   0  0  0  0  0  0  0  0  0  0  0  0
  174.5764  163.0366  118.7833 C   0  0  0  0  0  0  0  0  0  0  0  0
  175.1204  162.8838  120.0540 C   0  0  0  0  0  0  0  0  0  0  0  0
  176.4467  162.9859  120.1678 N   0  0  0  0  0  0  0  0  0  0  0  0
  177.2756  163.2266  119.1274 C   0  0  0  0  0  0  0  0  0  0  0  0
  176.6985  163.3663  117.9186 N   0  0  0  0  0  0  0  0  0  0  0  0
  178.6785  163.3309  119.3123 N   0  0  0  0  0  0  0  0  0  0  0  0
  179.6295  163.5368  118.2442 C   0  0  0  0  0  0  0  0  0  0  0  0
  180.9893  163.2735  118.8232 C   0  0  0  0  0  0  0  0  0  0  0  0
  180.7849  162.9090  120.2743 C   0  0  0  0  0  0  0  0  0  0  0  0
  179.3399  163.2425  120.5898 C   0  0  0  0  0  0  0  0  0  0  0  0
  174.3025  162.6274  121.1864 N   0  0  0  0  0  0  0  0  0  0  0  0
  172.8661  162.6190  121.2883 C   0  0  0  0  0  0  0  0  0  0  0  0
  172.6312  161.3154  122.0636 C   0  0  0  0  0  0  0  0  0  0  0  0
  173.9034  161.1328  122.8825 C   0  0  0  0  0  0  0  0  0  0  0  0
  174.7964  162.3117  122.5113 C   0  0  0  0  0  0  0  0  0  0  0  0
  2  1  1  1
  2  3  1  0
  4  3  1  1
  4  5  1  0
  5  6  1  6
  6  7  1  0
  7  8  1  0
  8  9  2  0
  9 10  1  0
 10 11  2  0
 10 12  1  0
 12 13  2  0
 13 14  1  0
 14 15  1  1
 14 16  1  0
 16 17  2  0
 17 18  1  0
 18 19  1  0
 19 20  1  1
 19 21  1  0
 21 22  1  1
 22 23  2  0
 22 24  1  0
 24 25  1  0
 25 26  1  0
 26 27  1  0
 27 28  1  0
 28 29  1  0
 29 30  1  0
 28 31  1  0
 31 32  2  0
 32 33  1  0
 33 34  2  0
 34 35  1  0
 35 36  2  0
 35 37  1  0
 37 38  1  0
 38 39  1  0
 39 40  1  0
 40 41  1  0
 33 42  1  0
 42 43  1  0
 43 44  1  0
 44 45  1  0
 45 46  1  0
 21  2  1  0
 30 25  1  0
 36 31  1  0
 41 37  1  0
 46 42  1  0
 19  4  1  0
 16  5  1  0
 14  8  1  0
M  END
$$$$
