
     RDKit          3D

 46 53  0  0  0  0  0  0  0  0999 V2000
  126.2173  143.5681  133.5023 C   0  0  0  0  0  0  0  0  0  0  0  0
  126.4450  144.2442  134.8513 C   0  0  2  0  0  0  0  0  0  0  0  0
  125.5678  145.5198  134.7737 C   0  0  0  0  0  0  0  0  0  0  0  0
  126.6054  146.5475  134.3956 C   0  0  1  0  0  0  0  0  0  0  0  0
  126.1493  147.9727  134.5290 C   0  0  2  0  0  0  0  0  0  0  0  0
  125.5587  148.3486  133.1913 C   0  0  0  0  0  0  0  0  0  0  0  0
  125.2867  149.8296  133.0271 C   0  0  0  0  0  0  0  0  0  0  0  0
  126.4579  150.6194  133.5190 C   0  0  0  0  0  0  0  0  0  0  0  0
  126.9451  151.5583  132.7614 C   0  0  0  0  0  0  0  0  0  0  0  0
  128.0908  152.3758  133.1573 C   0  0  0  0  0  0  0  0  0  0  0  0
  128.5073  153.2611  132.3836 O   0  0  0  0  0  0  0  0  0  0  0  0
  128.6718  152.0914  134.4493 C   0  0  0  0  0  0  0  0  0  0  0  0
  128.1807  151.1452  135.2180 C   0  0  0  0  0  0  0  0  0  0  0  0
  127.0360  150.3250  134.8466 C   0  0  1  0  0  0  0  0  0  0  0  0
  125.9127  150.6233  135.8527 C   0  0  0  0  0  0  0  0  0  0  0  0
  127.2993  148.8495  134.8280 C   0  0  0  0  0  0  0  0  0  0  0  0
  128.5021  148.4025  135.0716 C   0  0  0  0  0  0  0  0  0  0  0  0
  128.8936  146.9731  135.0853 C   0  0  0  0  0  0  0  0  0  0  0  0
  127.6857  146.1655  135.4023 C   0  0  1  0  0  0  0  0  0  0  0  0
  127.2000  146.2851  136.8121 C   0  0  0  0  0  0  0  0  0  0  0  0
  127.8579  144.6925  134.9721 C   0  0  1  0  0  0  0  0  0  0  0  0
  128.7661  143.9781  135.8441 C   0  0  0  0  0  0  0  0  0  0  0  0
  128.2827  143.7346  137.0032 O   0  0  0  0  0  0  0  0  0  0  0  0
  130.1306  143.4918  135.6611 C   0  0  0  0  0  0  0  0  0  0  0  0
  130.4407  142.1420  135.5591 N   0  0  0  0  0  0  0  0  0  0  0  0
  131.7767  141.7258  135.4247 C   0  0  0  0  0  0  0  0  0  0  0  0
  131.9016  140.2217  135.1778 C   0  0  0  0  0  0  0  0  0  0  0  0
  131.1388  139.8400  134.0121 N   0  0  0  0  0  0  0  0  0  0  0  0
  129.8654  140.5426  133.8291 C   0  0  0  0  0  0  0  0  0  0  0  0
  129.4326  141.2512  135.0763 C   0  0  0  0  0  0  0  0  0  0  0  0
  131.5262  138.8658  133.0707 C   0  0  0  0  0  0  0  0  0  0  0  0
  132.7331  138.2195  133.2200 C   0  0  0  0  0  0  0  0  0  0  0  0
  133.1486  137.2607  132.3023 C   0  0  0  0  0  0  0  0  0  0  0  0
  132.3314  136.9983  131.2797 N   0  0  0  0  0  0  0  0  0  0  0  0
  131.1389  137.6071  131.0930 C   0  0  0  0  0  0  0  0  0  0  0  0
  130.7836  138.5273  132.0100 N   0  0  0  0  0  0  0  0  0  0  0  0
  130.3160  137.2899  129.9816 N   0  0  0  0  0  0  0  0  0  0  0  0
  130.6969  136.3954  128.9128 C   0  0  0  0  0  0  0  0  0  0  0  0
  129.6927  136.5873  127.8136 C   0  0  0  0  0  0  0  0  0  0  0  0
  128.7115  137.6301  128.2934 C   0  0  0  0  0  0  0  0  0  0  0  0
  128.9925  137.8205  129.7710 C   0  0  0  0  0  0  0  0  0  0  0  0
  134.3895  136.5846  132.4445 N   0  0  0  0  0  0  0  0  0  0  0  0
  135.0007  135.6122  131.5760 C   0  0  0  0  0  0  0  0  0  0  0  0
  136.4355  136.1506  131.4908 C   0  0  0  0  0  0  0  0  0  0  0  0
  136.6353  136.8926  132.8068 C   0  0  0  0  0  0  0  0  0  0  0  0
  135.3096  136.7645  133.5490 C   0  0  0  0  0  0  0  0  0  0  0  0
  2  1  1  6
  2  3  1  0
  4  3  1  1
  4  5  1  0
  5  6  1  6
  6  7  1  0
  7  8  1  0
  8  9  2  0
  9 10  1  0
 10 11  2  0
 10 12  1  0
 12 13  2  0
 13 14  1  0
 14 15  1  1
 14 16  1  0
 16 17  2  0
 17 18  1  0
 18 19  1  0
 19 20  1  1
 19 21  1  0
 21 22  1  1
 22 23  2  0
 22 24  1  0
 24 25  1  0
 25 26  1  0
 26 27  1  0
 27 28  1  0
 28 29  1  0
 29 30  1  0
 28 31  1  0
 31 32  2  0
 32 33  1  0
 33 34  2  0
 34 35  1  0
 35 36  2  0
 35 37  1  0
 37 38  1  0
 38 39  1  0
 39 40  1  0
 40 41  1  0
 33 42  1  0
 42 43  1  0
 43 44  1  0
 44 45  1  0
 45 46  1  0
 21  2  1  0
 30 25  1  0
 36 31  1  0
 41 37  1  0
 46 42  1  0
 19  4  1  0
 16  5  1  0
 14  8  1  0
M  END
$$$$
