
     RDKit          3D

 46 53  0  0  0  0  0  0  0  0999 V2000
  131.2964  140.1025  133.0215 C   0  0  0  0  0  0  0  0  0  0  0  0
  130.2651  139.3512  132.1843 C   0  0  2  0  0  0  0  0  0  0  0  0
  128.9184  139.6887  132.8739 C   0  0  0  0  0  0  0  0  0  0  0  0
  128.7229  138.4547  133.7193 C   0  0  1  0  0  0  0  0  0  0  0  0
  127.3460  138.3104  134.3030 C   0  0  2  0  0  0  0  0  0  0  0  0
  127.3884  138.9979  135.6465 C   0  0  0  0  0  0  0  0  0  0  0  0
  126.1785  138.7319  136.5181 C   0  0  0  0  0  0  0  0  0  0  0  0
  125.8425  137.2746  136.4908 C   0  0  0  0  0  0  0  0  0  0  0  0
  125.6481  136.6537  137.6175 C   0  0  0  0  0  0  0  0  0  0  0  0
  125.3217  135.2301  137.6871 C   0  0  0  0  0  0  0  0  0  0  0  0
  125.1464  134.6964  138.8008 O   0  0  0  0  0  0  0  0  0  0  0  0
  125.2235  134.5276  136.4285 C   0  0  0  0  0  0  0  0  0  0  0  0
  125.4170  135.1523  135.2885 C   0  0  0  0  0  0  0  0  0  0  0  0
  125.7351  136.5705  135.1962 C   0  0  1  0  0  0  0  0  0  0  0  0
  124.5723  137.2539  134.4586 C   0  0  0  0  0  0  0  0  0  0  0  0
  127.0177  136.8823  134.4862 C   0  0  0  0  0  0  0  0  0  0  0  0
  127.7786  135.9082  134.0643 C   0  0  0  0  0  0  0  0  0  0  0  0
  129.0659  136.0802  133.3501 C   0  0  0  0  0  0  0  0  0  0  0  0
  129.0422  137.3999  132.6649 C   0  0  1  0  0  0  0  0  0  0  0  0
  128.1155  137.4852  131.4937 C   0  0  0  0  0  0  0  0  0  0  0  0
  130.4659  137.8833  132.3132 C   0  0  1  0  0  0  0  0  0  0  0  0
  131.0326  137.1363  131.2103 C   0  0  0  0  0  0  0  0  0  0  0  0
  130.9118  135.8685  131.3309 O   0  0  0  0  0  0  0  0  0  0  0  0
  131.7252  137.5487  129.9929 C   0  0  0  0  0  0  0  0  0  0  0  0
  132.3806  138.7675  129.8766 N   0  0  0  0  0  0  0  0  0  0  0  0
  131.6538  139.9482  129.6445 C   0  0  0  0  0  0  0  0  0  0  0  0
  132.5587  141.1565  129.3988 C   0  0  0  0  0  0  0  0  0  0  0  0
  133.4549  140.8955  128.2964 N   0  0  0  0  0  0  0  0  0  0  0  0
  133.9665  139.5250  128.2054 C   0  0  0  0  0  0  0  0  0  0  0  0
  133.7530  138.7619  129.4770 C   0  0  0  0  0  0  0  0  0  0  0  0
  133.8578  141.8435  127.3349 C   0  0  0  0  0  0  0  0  0  0  0  0
  134.9255  141.5634  126.5113 C   0  0  0  0  0  0  0  0  0  0  0  0
  135.3540  142.4823  125.5594 C   0  0  0  0  0  0  0  0  0  0  0  0
  134.6891  143.6374  125.4817 N   0  0  0  0  0  0  0  0  0  0  0  0
  133.6367  143.9551  126.2685 C   0  0  0  0  0  0  0  0  0  0  0  0
  133.2618  143.0308  127.1734 N   0  0  0  0  0  0  0  0  0  0  0  0
  132.9735  145.2031  126.1428 N   0  0  0  0  0  0  0  0  0  0  0  0
  133.3878  146.2615  125.2508 C   0  0  0  0  0  0  0  0  0  0  0  0
  132.6235  147.4884  125.6558 C   0  0  0  0  0  0  0  0  0  0  0  0
  131.7459  147.0939  126.8196 C   0  0  0  0  0  0  0  0  0  0  0  0
  131.8005  145.5804  126.8905 C   0  0  0  0  0  0  0  0  0  0  0  0
  136.4521  142.2064  124.7019 N   0  0  0  0  0  0  0  0  0  0  0  0
  136.9204  142.9439  123.5572 C   0  0  0  0  0  0  0  0  0  0  0  0
  138.4290  142.9961  123.8347 C   0  0  0  0  0  0  0  0  0  0  0  0
  138.7006  141.7456  124.6622 C   0  0  0  0  0  0  0  0  0  0  0  0
  137.3435  141.0723  124.8355 C   0  0  0  0  0  0  0  0  0  0  0  0
  2  1  1  1
  2  3  1  0
  4  3  1  6
  4  5  1  0
  5  6  1  1
  6  7  1  0
  7  8  1  0
  8  9  2  0
  9 10  1  0
 10 11  2  0
 10 12  1  0
 12 13  2  0
 13 14  1  0
 14 15  1  6
 14 16  1  0
 16 17  2  0
 17 18  1  0
 18 19  1  0
 19 20  1  6
 19 21  1  0
 21 22  1  6
 22 23  2  0
 22 24  1  0
 24 25  1  0
 25 26  1  0
 26 27  1  0
 27 28  1  0
 28 29  1  0
 29 30  1  0
 28 31  1  0
 31 32  2  0
 32 33  1  0
 33 34  2  0
 34 35  1  0
 35 36  2  0
 35 37  1  0
 37 38  1  0
 38 39  1  0
 39 40  1  0
 40 41  1  0
 33 42  1  0
 42 43  1  0
 43 44  1  0
 44 45  1  0
 45 46  1  0
 21  2  1  0
 30 25  1  0
 36 31  1  0
 41 37  1  0
 46 42  1  0
 19  4  1  0
 16  5  1  0
 14  8  1  0
M  END
$$$$
