
     RDKit          3D

 46 53  0  0  0  0  0  0  0  0999 V2000
  130.1800  138.3839  133.8817 C   0  0  0  0  0  0  0  0  0  0  0  0
  130.9731  139.5542  134.4564 C   0  0  2  0  0  0  0  0  0  0  0  0
  130.0890  140.0554  135.6269 C   0  0  0  0  0  0  0  0  0  0  0  0
  129.3864  141.2156  134.9667 C   0  0  1  0  0  0  0  0  0  0  0  0
  128.6629  142.1284  135.9156 C   0  0  2  0  0  0  0  0  0  0  0  0
  127.2593  141.5839  136.0297 C   0  0  0  0  0  0  0  0  0  0  0  0
  126.2876  142.5139  136.7263 C   0  0  0  0  0  0  0  0  0  0  0  0
  126.4553  143.9065  136.2069 C   0  0  0  0  0  0  0  0  0  0  0  0
  125.3995  144.5692  135.8341 C   0  0  0  0  0  0  0  0  0  0  0  0
  125.4686  145.9319  135.3088 C   0  0  0  0  0  0  0  0  0  0  0  0
  124.4171  146.5113  134.9704 O   0  0  0  0  0  0  0  0  0  0  0  0
  126.7837  146.5232  135.2178 C   0  0  0  0  0  0  0  0  0  0  0  0
  127.8521  145.8575  135.5957 C   0  0  0  0  0  0  0  0  0  0  0  0
  127.8049  144.5030  136.1287 C   0  0  1  0  0  0  0  0  0  0  0  0
  128.3055  144.5642  137.5809 C   0  0  0  0  0  0  0  0  0  0  0  0
  128.6206  143.5001  135.3702 C   0  0  0  0  0  0  0  0  0  0  0  0
  129.2493  143.8636  134.2846 C   0  0  0  0  0  0  0  0  0  0  0  0
  130.0871  142.9735  133.4464 C   0  0  0  0  0  0  0  0  0  0  0  0
  130.5947  141.8712  134.3059 C   0  0  1  0  0  0  0  0  0  0  0  0
  131.6253  142.2791  135.3105 C   0  0  0  0  0  0  0  0  0  0  0  0
  131.0532  140.6599  133.4651 C   0  0  1  0  0  0  0  0  0  0  0  0
  132.3010  140.9204  132.7788 C   0  0  0  0  0  0  0  0  0  0  0  0
  133.1221  141.6310  133.4550 O   0  0  0  0  0  0  0  0  0  0  0  0
  132.7992  140.5391  131.4604 C   0  0  0  0  0  0  0  0  0  0  0  0
  131.9659  140.3633  130.3634 N   0  0  0  0  0  0  0  0  0  0  0  0
  131.6401  139.0713  129.9155 C   0  0  0  0  0  0  0  0  0  0  0  0
  130.8380  139.0855  128.6136 C   0  0  0  0  0  0  0  0  0  0  0  0
  131.5590  139.8036  127.5884 N   0  0  0  0  0  0  0  0  0  0  0  0
  132.3017  140.9828  128.0427 C   0  0  0  0  0  0  0  0  0  0  0  0
  131.8720  141.4232  129.4089 C   0  0  0  0  0  0  0  0  0  0  0  0
  131.5918  139.4562  126.2232 C   0  0  0  0  0  0  0  0  0  0  0  0
  132.2644  140.2638  125.3331 C   0  0  0  0  0  0  0  0  0  0  0  0
  132.3065  139.9539  123.9781 C   0  0  0  0  0  0  0  0  0  0  0  0
  131.6709  138.8481  123.5836 N   0  0  0  0  0  0  0  0  0  0  0  0
  130.9985  138.0266  124.4206 C   0  0  0  0  0  0  0  0  0  0  0  0
  130.9886  138.3716  125.7224 N   0  0  0  0  0  0  0  0  0  0  0  0
  130.3362  136.8673  123.9404 N   0  0  0  0  0  0  0  0  0  0  0  0
  130.1730  136.5407  122.5424 C   0  0  0  0  0  0  0  0  0  0  0  0
  129.1659  135.4296  122.4757 C   0  0  0  0  0  0  0  0  0  0  0  0
  128.7548  135.1245  123.8964 C   0  0  0  0  0  0  0  0  0  0  0  0
  129.7366  135.8642  124.7839 C   0  0  0  0  0  0  0  0  0  0  0  0
  132.9979  140.7760  123.0490 N   0  0  0  0  0  0  0  0  0  0  0  0
  133.8676  141.8966  123.2968 C   0  0  0  0  0  0  0  0  0  0  0  0
  135.0471  141.5672  122.3715 C   0  0  0  0  0  0  0  0  0  0  0  0
  134.4244  140.7435  121.2508 C   0  0  0  0  0  0  0  0  0  0  0  0
  132.9473  140.6235  121.6092 C   0  0  0  0  0  0  0  0  0  0  0  0
  2  1  1  6
  2  3  1  0
  4  3  1  1
  4  5  1  0
  5  6  1  6
  6  7  1  0
  7  8  1  0
  8  9  2  0
  9 10  1  0
 10 11  2  0
 10 12  1  0
 12 13  2  0
 13 14  1  0
 14 15  1  1
 14 16  1  0
 16 17  2  0
 17 18  1  0
 18 19  1  0
 19 20  1  1
 19 21  1  0
 21 22  1  1
 22 23  2  0
 22 24  1  0
 24 25  1  0
 25 26  1  0
 26 27  1  0
 27 28  1  0
 28 29  1  0
 29 30  1  0
 28 31  1  0
 31 32  2  0
 32 33  1  0
 33 34  2  0
 34 35  1  0
 35 36  2  0
 35 37  1  0
 37 38  1  0
 38 39  1  0
 39 40  1  0
 40 41  1  0
 33 42  1  0
 42 43  1  0
 43 44  1  0
 44 45  1  0
 45 46  1  0
 21  2  1  0
 30 25  1  0
 36 31  1  0
 41 37  1  0
 46 42  1  0
 19  4  1  0
 16  5  1  0
 14  8  1  0
M  END
$$$$
